asd
 OpenBabel07242019243D

 86 90  0  0  1  0  0  0  0  0999 V2000
    0.0000    0.0000    0.0000 Ru  0  0  0  0  0  0  0  0  0  0  0  0
    1.9821    0.0000    0.0000 C   0  0  1  0  0  3  0  0  0  0  0  0
    2.9038    0.0000    0.9974 N   0  0  0  0  0  0  0  0  0  0  0  0
    4.2500   -0.3810    0.5235 C   0  0  1  0  0  0  0  0  0  0  0  0
    4.1234   -0.1136   -0.9786 C   0  0  2  0  0  0  0  0  0  0  0  0
    2.6651   -0.1577   -1.1743 N   0  0  0  0  0  0  0  0  0  0  0  0
    4.4807    0.8966   -1.1973 H   0  0  0  0  0  0  0  0  0  0  0  0
    4.4094   -1.4498    0.7163 H   0  0  0  0  0  0  0  0  0  0  0  0
    2.0990    0.1033   -2.4708 C   0  0  0  0  0  0  0  0  0  0  0  0
    2.0853    1.4283   -2.9568 C   0  0  0  0  0  0  0  0  0  0  0  0
    1.4917    1.6729   -4.1946 C   0  0  0  0  0  0  0  0  0  0  0  0
    0.9189    0.6475   -4.9575 C   0  0  0  0  0  0  0  0  0  0  0  0
    0.9947   -0.6575   -4.4717 C   0  0  0  0  0  0  0  0  0  0  0  0
    1.5974   -0.9588   -3.2428 C   0  0  0  0  0  0  0  0  0  0  0  0
    1.4673    2.6933   -4.5700 H   0  0  0  0  0  0  0  0  0  0  0  0
    0.5888   -1.4731   -5.0658 H   0  0  0  0  0  0  0  0  0  0  0  0
    1.7456   -2.4036   -2.8388 C   0  0  0  0  0  0  0  0  0  0  0  0
    2.5602   -2.8687   -3.4096 H   0  0  0  0  0  0  0  0  0  0  0  0
    1.9550   -2.5128   -1.7765 H   0  0  0  0  0  0  0  0  0  0  0  0
    0.8329   -2.9649   -3.0599 H   0  0  0  0  0  0  0  0  0  0  0  0
    2.7224    2.5647   -2.1969 C   0  0  0  0  0  0  0  0  0  0  0  0
    2.2828    3.5187   -2.4990 H   0  0  0  0  0  0  0  0  0  0  0  0
    3.7991    2.6185   -2.4049 H   0  0  0  0  0  0  0  0  0  0  0  0
    2.5872    2.4621   -1.1195 H   0  0  0  0  0  0  0  0  0  0  0  0
    0.2343    0.9543   -6.2668 C   0  0  0  0  0  0  0  0  0  0  0  0
    0.1262    0.0554   -6.8812 H   0  0  0  0  0  0  0  0  0  0  0  0
    0.7917    1.7010   -6.8425 H   0  0  0  0  0  0  0  0  0  0  0  0
   -0.7704    1.3620   -6.0966 H   0  0  0  0  0  0  0  0  0  0  0  0
    2.6299    0.1611    2.3905 C   0  0  0  0  0  0  0  0  0  0  0  0
    2.4672    1.4660    2.8895 C   0  0  0  0  0  0  0  0  0  0  0  0
    2.1494    1.6202    4.2412 C   0  0  0  0  0  0  0  0  0  0  0  0
    2.0033    2.6228    4.6352 H   0  0  0  0  0  0  0  0  0  0  0  0
    2.1855   -0.7616    4.5642 C   0  0  0  0  0  0  0  0  0  0  0  0
    2.5083   -0.9660    3.2183 C   0  0  0  0  0  0  0  0  0  0  0  0
    2.0673   -1.6273    5.2111 H   0  0  0  0  0  0  0  0  0  0  0  0
    1.9995    0.5194    5.0931 C   0  0  0  0  0  0  0  0  0  0  0  0
    2.6845   -2.3619    2.6775 C   0  0  0  0  0  0  0  0  0  0  0  0
    2.2830   -3.0981    3.3796 H   0  0  0  0  0  0  0  0  0  0  0  0
    3.7446   -2.6010    2.5249 H   0  0  0  0  0  0  0  0  0  0  0  0
    2.1701   -2.4835    1.7197 H   0  0  0  0  0  0  0  0  0  0  0  0
    3.4823    2.6827    1.4095 H   0  0  0  0  0  0  0  0  0  0  0  0
    2.5480    2.6652    1.9799 C   0  0  0  0  0  0  0  0  0  0  0  0
    2.4855    3.5907    2.5590 H   0  0  0  0  0  0  0  0  0  0  0  0
    1.7288    2.6578    1.2515 H   0  0  0  0  0  0  0  0  0  0  0  0
    1.6681    0.7144    6.5523 C   0  0  0  0  0  0  0  0  0  0  0  0
    1.0015    1.5706    6.6981 H   0  0  0  0  0  0  0  0  0  0  0  0
    2.5766    0.9061    7.1378 H   0  0  0  0  0  0  0  0  0  0  0  0
    1.1873   -0.1737    6.9736 H   0  0  0  0  0  0  0  0  0  0  0  0
   -0.2785    2.2818   -0.6950 Cl  0  0  0  0  0  0  0  0  0  0  0  0
   -0.0529   -2.4059    0.0613 Cl  0  0  0  0  0  0  0  0  0  0  0  0
   -0.3904    0.2548    1.7768 C   0  0  0  0  0  3  0  0  0  0  0  0
    0.3322    0.4445    2.5657 H   0  0  0  0  0  0  0  0  0  0  0  0
   -1.7644    0.1997    2.2156 C   0  0  0  0  0  0  0  0  0  0  0  0
   -2.7805   -0.0039    1.2504 C   0  0  0  0  0  0  0  0  0  0  0  0
   -4.1195   -0.0838    1.6250 C   0  0  0  0  0  0  0  0  0  0  0  0
   -4.4467    0.0430    2.9795 C   0  0  0  0  0  0  0  0  0  0  0  0
   -3.4631    0.2484    3.9534 C   0  0  0  0  0  0  0  0  0  0  0  0
   -2.1285    0.3259    3.5699 C   0  0  0  0  0  0  0  0  0  0  0  0
   -1.3435    0.4808    4.3054 H   0  0  0  0  0  0  0  0  0  0  0  0
   -3.7412    0.3459    4.9977 H   0  0  0  0  0  0  0  0  0  0  0  0
   -5.4908   -0.0187    3.2711 H   0  0  0  0  0  0  0  0  0  0  0  0
   -4.9044   -0.2385    0.8961 H   0  0  0  0  0  0  0  0  0  0  0  0
   -2.3022   -0.1218   -0.0234 O   0  0  0  0  0  0  0  0  0  0  0  0
    5.2503    0.3621    2.2823 H   0  0  0  0  0  0  0  0  0  0  0  0
    5.3512    1.4516    0.8842 H   0  0  0  0  0  0  0  0  0  0  0  0
    6.6755   -0.2340    0.9202 N   0  0  0  0  0  0  0  0  0  0  0  0
    5.3774    0.4011    1.1984 C   0  0  0  0  0  0  0  0  0  0  0  0
    7.4270    0.1411    1.4977 H   0  0  0  0  0  0  0  0  0  0  0  0
    7.2024   -0.2621   -0.6859 S   0  0  0  0  0  0  0  0  0  0  0  0
    6.2469   -1.4212   -1.3893 N   0  0  0  0  0  0  0  0  0  0  0  0
    6.9109    0.9922   -1.3908 O   0  0  0  0  0  0  0  0  0  0  0  0
    8.5715   -0.7688   -0.6165 O   0  0  0  0  0  0  0  0  0  0  0  0
    4.9407   -0.7235   -2.8855 H   0  0  0  0  0  0  0  0  0  0  0  0
    4.3544   -2.0605   -1.8879 H   0  0  0  0  0  0  0  0  0  0  0  0
    4.8839   -1.1074   -1.8647 C   0  0  0  0  0  0  0  0  0  0  0  0
    6.3284   -2.3019   -0.8887 H   0  0  0  0  0  0  0  0  0  0  0  0
   -3.2136   -0.1724   -1.1712 C   0  0  0  0  0  0  0  0  0  0  0  0
   -3.9910   -0.8991   -0.9161 H   0  0  0  0  0  0  0  0  0  0  0  0
   -2.4078   -0.6917   -2.3496 C   0  0  0  0  0  0  0  0  0  0  0  0
   -1.6277    0.0203   -2.6369 H   0  0  0  0  0  0  0  0  0  0  0  0
   -1.9386   -1.6490   -2.1100 H   0  0  0  0  0  0  0  0  0  0  0  0
   -3.0785   -0.8290   -3.2038 H   0  0  0  0  0  0  0  0  0  0  0  0
   -3.8083    1.2069   -1.4206 C   0  0  0  0  0  0  0  0  0  0  0  0
   -4.5077    1.1539   -2.2614 H   0  0  0  0  0  0  0  0  0  0  0  0
   -4.3520    1.5806   -0.5486 H   0  0  0  0  0  0  0  0  0  0  0  0
   -3.0089    1.9123   -1.6627 H   0  0  0  0  0  0  0  0  0  0  0  0
  1 50  1  0  0  0  0
  1 51  1  0  0  0  0
  2  1  1  1  0  0  0
  2  3  1  0  0  0  0
  3 29  1  0  0  0  0
  4  8  1  1  0  0  0
  4  3  1  0  0  0  0
  4 67  1  0  0  0  0
  5  7  1  6  0  0  0
  5  4  1  0  0  0  0
  6  5  1  0  0  0  0
  6  2  1  0  0  0  0
  9  6  1  0  0  0  0
 10  9  1  0  0  0  0
 10 21  1  0  0  0  0
 11 10  2  0  0  0  0
 12 13  2  0  0  0  0
 12 11  1  0  0  0  0
 13 14  1  0  0  0  0
 14 17  1  0  0  0  0
 14  9  2  0  0  0  0
 15 11  1  0  0  0  0
 16 13  1  0  0  0  0
 17 19  1  0  0  0  0
 18 17  1  0  0  0  0
 20 17  1  0  0  0  0
 21 24  1  0  0  0  0
 22 21  1  0  0  0  0
 23 21  1  0  0  0  0
 25 28  1  0  0  0  0
 25 12  1  0  0  0  0
 26 25  1  0  0  0  0
 27 25  1  0  0  0  0
 29 30  2  0  0  0  0
 29 34  1  0  0  0  0
 30 31  1  0  0  0  0
 31 32  1  0  0  0  0
 31 36  2  0  0  0  0
 33 36  1  0  0  0  0
 33 35  1  0  0  0  0
 34 33  2  0  0  0  0
 36 45  1  0  0  0  0
 37 34  1  0  0  0  0
 37 38  1  0  0  0  0
 39 37  1  0  0  0  0
 40 37  1  0  0  0  0
 41 42  1  0  0  0  0
 42 43  1  0  0  0  0
 42 30  1  0  0  0  0
 44 42  1  0  0  0  0
 45 46  1  0  0  0  0
 45 48  1  0  0  0  0
 45 47  1  0  0  0  0
 49  1  1  0  0  0  0
 51 53  1  0  0  0  0
 51 52  1  0  0  0  0
 53 58  1  0  0  0  0
 54 55  1  0  0  0  0
 54 53  2  0  0  0  0
 55 56  2  0  0  0  0
 56 61  1  0  0  0  0
 56 57  1  0  0  0  0
 57 60  1  0  0  0  0
 58 57  2  0  0  0  0
 58 59  1  0  0  0  0
 62 55  1  0  0  0  0
 63 54  1  0  0  0  0
 65 67  1  0  0  0  0
 66 67  1  0  0  0  0
 66 68  1  0  0  0  0
 67 64  1  0  0  0  0
 69 72  2  0  0  0  0
 69 66  1  0  0  0  0
 70 76  1  0  0  0  0
 70 69  1  0  0  0  0
 71 69  2  0  0  0  0
 73 75  1  0  0  0  0
 74 75  1  0  0  0  0
 75 70  1  0  0  0  0
 75  5  1  0  0  0  0
 77 78  1  0  0  0  0
 77 63  1  0  0  0  0
 79 81  1  0  0  0  0
 79 77  1  0  0  0  0
 80 79  1  0  0  0  0
 82 79  1  0  0  0  0
 83 77  1  0  0  0  0
 83 85  1  0  0  0  0
 84 83  1  0  0  0  0
 86 83  1  0  0  0  0
M  END
$$$$
asd
 OpenBabel07242019243D

 86 90  0  0  1  0  0  0  0  0999 V2000
    0.0000    0.0000    0.0000 Ru  0  0  0  0  0  0  0  0  0  0  0  0
    1.9821    0.0000    0.0000 C   0  0  1  0  0  3  0  0  0  0  0  0
    2.9038    0.0000    0.9974 N   0  0  0  0  0  0  0  0  0  0  0  0
    4.2500   -0.3810    0.5235 C   0  0  1  0  0  0  0  0  0  0  0  0
    4.1234   -0.1136   -0.9786 C   0  0  2  0  0  0  0  0  0  0  0  0
    2.6651   -0.1577   -1.1743 N   0  0  0  0  0  0  0  0  0  0  0  0
    4.4807    0.8966   -1.1973 H   0  0  0  0  0  0  0  0  0  0  0  0
    4.4094   -1.4498    0.7163 H   0  0  0  0  0  0  0  0  0  0  0  0
    2.0990    0.1033   -2.4708 C   0  0  0  0  0  0  0  0  0  0  0  0
    2.0853    1.4283   -2.9568 C   0  0  0  0  0  0  0  0  0  0  0  0
    1.4917    1.6729   -4.1946 C   0  0  0  0  0  0  0  0  0  0  0  0
    0.9189    0.6475   -4.9575 C   0  0  0  0  0  0  0  0  0  0  0  0
    0.9947   -0.6575   -4.4717 C   0  0  0  0  0  0  0  0  0  0  0  0
    1.5974   -0.9588   -3.2428 C   0  0  0  0  0  0  0  0  0  0  0  0
    1.4673    2.6933   -4.5700 H   0  0  0  0  0  0  0  0  0  0  0  0
    0.5888   -1.4731   -5.0658 H   0  0  0  0  0  0  0  0  0  0  0  0
    1.7456   -2.4036   -2.8388 C   0  0  0  0  0  0  0  0  0  0  0  0
    2.5602   -2.8687   -3.4096 H   0  0  0  0  0  0  0  0  0  0  0  0
    1.9550   -2.5128   -1.7765 H   0  0  0  0  0  0  0  0  0  0  0  0
    0.8329   -2.9649   -3.0599 H   0  0  0  0  0  0  0  0  0  0  0  0
    2.7224    2.5647   -2.1969 C   0  0  0  0  0  0  0  0  0  0  0  0
    2.2828    3.5187   -2.4990 H   0  0  0  0  0  0  0  0  0  0  0  0
    3.7991    2.6185   -2.4049 H   0  0  0  0  0  0  0  0  0  0  0  0
    2.5872    2.4621   -1.1195 H   0  0  0  0  0  0  0  0  0  0  0  0
    0.2343    0.9543   -6.2668 C   0  0  0  0  0  0  0  0  0  0  0  0
    0.1262    0.0554   -6.8812 H   0  0  0  0  0  0  0  0  0  0  0  0
    0.7917    1.7010   -6.8425 H   0  0  0  0  0  0  0  0  0  0  0  0
   -0.7704    1.3620   -6.0966 H   0  0  0  0  0  0  0  0  0  0  0  0
    2.6299    0.1611    2.3905 C   0  0  0  0  0  0  0  0  0  0  0  0
    2.4672    1.4660    2.8895 C   0  0  0  0  0  0  0  0  0  0  0  0
    2.1494    1.6202    4.2412 C   0  0  0  0  0  0  0  0  0  0  0  0
    2.0033    2.6228    4.6352 H   0  0  0  0  0  0  0  0  0  0  0  0
    2.1855   -0.7616    4.5642 C   0  0  0  0  0  0  0  0  0  0  0  0
    2.5083   -0.9660    3.2183 C   0  0  0  0  0  0  0  0  0  0  0  0
    2.0673   -1.6273    5.2111 H   0  0  0  0  0  0  0  0  0  0  0  0
    1.9995    0.5194    5.0931 C   0  0  0  0  0  0  0  0  0  0  0  0
    2.6845   -2.3619    2.6775 C   0  0  0  0  0  0  0  0  0  0  0  0
    2.2830   -3.0981    3.3796 H   0  0  0  0  0  0  0  0  0  0  0  0
    3.7446   -2.6010    2.5249 H   0  0  0  0  0  0  0  0  0  0  0  0
    2.1701   -2.4835    1.7197 H   0  0  0  0  0  0  0  0  0  0  0  0
    3.4823    2.6827    1.4095 H   0  0  0  0  0  0  0  0  0  0  0  0
    2.5480    2.6652    1.9799 C   0  0  0  0  0  0  0  0  0  0  0  0
    2.4855    3.5907    2.5590 H   0  0  0  0  0  0  0  0  0  0  0  0
    1.7288    2.6578    1.2515 H   0  0  0  0  0  0  0  0  0  0  0  0
    1.6681    0.7144    6.5523 C   0  0  0  0  0  0  0  0  0  0  0  0
    1.0015    1.5706    6.6981 H   0  0  0  0  0  0  0  0  0  0  0  0
    2.5766    0.9061    7.1378 H   0  0  0  0  0  0  0  0  0  0  0  0
    1.1873   -0.1737    6.9736 H   0  0  0  0  0  0  0  0  0  0  0  0
   -0.2785    2.2818   -0.6950 Cl  0  0  0  0  0  0  0  0  0  0  0  0
   -0.0529   -2.4059    0.0613 Cl  0  0  0  0  0  0  0  0  0  0  0  0
   -0.3904    0.2548    1.7768 C   0  0  0  0  0  3  0  0  0  0  0  0
    0.3322    0.4445    2.5657 H   0  0  0  0  0  0  0  0  0  0  0  0
   -1.7644    0.1997    2.2156 C   0  0  0  0  0  0  0  0  0  0  0  0
   -2.7805   -0.0039    1.2504 C   0  0  0  0  0  0  0  0  0  0  0  0
   -4.1195   -0.0838    1.6250 C   0  0  0  0  0  0  0  0  0  0  0  0
   -4.4467    0.0430    2.9795 C   0  0  0  0  0  0  0  0  0  0  0  0
   -3.4631    0.2484    3.9534 C   0  0  0  0  0  0  0  0  0  0  0  0
   -2.1285    0.3259    3.5699 C   0  0  0  0  0  0  0  0  0  0  0  0
   -1.3435    0.4808    4.3054 H   0  0  0  0  0  0  0  0  0  0  0  0
   -3.7412    0.3459    4.9977 H   0  0  0  0  0  0  0  0  0  0  0  0
   -5.4908   -0.0187    3.2711 H   0  0  0  0  0  0  0  0  0  0  0  0
   -4.9044   -0.2385    0.8961 H   0  0  0  0  0  0  0  0  0  0  0  0
   -2.3022   -0.1218   -0.0234 O   0  0  0  0  0  0  0  0  0  0  0  0
    5.2503    0.3621    2.2823 H   0  0  0  0  0  0  0  0  0  0  0  0
    5.3512    1.4516    0.8842 H   0  0  0  0  0  0  0  0  0  0  0  0
    6.6755   -0.2340    0.9202 N   0  0  0  0  0  0  0  0  0  0  0  0
    5.3774    0.4011    1.1984 C   0  0  0  0  0  0  0  0  0  0  0  0
    7.4270    0.1411    1.4977 H   0  0  0  0  0  0  0  0  0  0  0  0
    7.2024   -0.2621   -0.6859 S   0  0  0  0  0  0  0  0  0  0  0  0
    6.2469   -1.4212   -1.3893 N   0  0  0  0  0  0  0  0  0  0  0  0
    6.9109    0.9922   -1.3908 O   0  0  0  0  0  0  0  0  0  0  0  0
    8.5715   -0.7688   -0.6165 O   0  0  0  0  0  0  0  0  0  0  0  0
    4.9407   -0.7235   -2.8855 H   0  0  0  0  0  0  0  0  0  0  0  0
    4.3544   -2.0605   -1.8879 H   0  0  0  0  0  0  0  0  0  0  0  0
    4.8839   -1.1074   -1.8647 C   0  0  0  0  0  0  0  0  0  0  0  0
    6.3284   -2.3019   -0.8887 H   0  0  0  0  0  0  0  0  0  0  0  0
   -3.2136   -0.1724   -1.1712 C   0  0  0  0  0  0  0  0  0  0  0  0
   -4.0409    0.5049   -0.9382 H   0  0  0  0  0  0  0  0  0  0  0  0
   -3.7378   -1.5958   -1.2537 C   0  0  0  0  0  0  0  0  0  0  0  0
   -2.9339   -2.2974   -1.4977 H   0  0  0  0  0  0  0  0  0  0  0  0
   -4.1938   -1.8992   -0.3082 H   0  0  0  0  0  0  0  0  0  0  0  0
   -4.4922   -1.6496   -2.0452 H   0  0  0  0  0  0  0  0  0  0  0  0
   -2.4815    0.2646   -2.4327 C   0  0  0  0  0  0  0  0  0  0  0  0
   -3.1762    0.2500   -3.2788 H   0  0  0  0  0  0  0  0  0  0  0  0
   -2.0784    1.2768   -2.3406 H   0  0  0  0  0  0  0  0  0  0  0  0
   -1.6560   -0.4233   -2.6341 H   0  0  0  0  0  0  0  0  0  0  0  0
  1 50  1  0  0  0  0
  1 51  1  0  0  0  0
  2  1  1  1  0  0  0
  2  3  1  0  0  0  0
  3 29  1  0  0  0  0
  4  8  1  1  0  0  0
  4  3  1  0  0  0  0
  4 67  1  0  0  0  0
  5  7  1  6  0  0  0
  5  4  1  0  0  0  0
  6  5  1  0  0  0  0
  6  2  1  0  0  0  0
  9  6  1  0  0  0  0
 10  9  1  0  0  0  0
 10 21  1  0  0  0  0
 11 10  2  0  0  0  0
 12 13  2  0  0  0  0
 12 11  1  0  0  0  0
 13 14  1  0  0  0  0
 14 17  1  0  0  0  0
 14  9  2  0  0  0  0
 15 11  1  0  0  0  0
 16 13  1  0  0  0  0
 17 19  1  0  0  0  0
 18 17  1  0  0  0  0
 20 17  1  0  0  0  0
 21 24  1  0  0  0  0
 22 21  1  0  0  0  0
 23 21  1  0  0  0  0
 25 28  1  0  0  0  0
 25 12  1  0  0  0  0
 26 25  1  0  0  0  0
 27 25  1  0  0  0  0
 29 30  2  0  0  0  0
 29 34  1  0  0  0  0
 30 31  1  0  0  0  0
 31 32  1  0  0  0  0
 31 36  2  0  0  0  0
 33 36  1  0  0  0  0
 33 35  1  0  0  0  0
 34 33  2  0  0  0  0
 36 45  1  0  0  0  0
 37 34  1  0  0  0  0
 37 38  1  0  0  0  0
 39 37  1  0  0  0  0
 40 37  1  0  0  0  0
 41 42  1  0  0  0  0
 42 43  1  0  0  0  0
 42 30  1  0  0  0  0
 44 42  1  0  0  0  0
 45 46  1  0  0  0  0
 45 48  1  0  0  0  0
 45 47  1  0  0  0  0
 49  1  1  0  0  0  0
 51 53  1  0  0  0  0
 51 52  1  0  0  0  0
 53 58  1  0  0  0  0
 54 55  1  0  0  0  0
 54 53  2  0  0  0  0
 55 56  2  0  0  0  0
 56 61  1  0  0  0  0
 56 57  1  0  0  0  0
 57 60  1  0  0  0  0
 58 57  2  0  0  0  0
 58 59  1  0  0  0  0
 62 55  1  0  0  0  0
 63 54  1  0  0  0  0
 65 67  1  0  0  0  0
 66 67  1  0  0  0  0
 66 68  1  0  0  0  0
 67 64  1  0  0  0  0
 69 72  2  0  0  0  0
 69 66  1  0  0  0  0
 70 76  1  0  0  0  0
 70 69  1  0  0  0  0
 71 69  2  0  0  0  0
 73 75  1  0  0  0  0
 74 75  1  0  0  0  0
 75 70  1  0  0  0  0
 75  5  1  0  0  0  0
 77 78  1  0  0  0  0
 77 63  1  0  0  0  0
 79 77  1  0  0  0  0
 79 81  1  0  0  0  0
 80 79  1  0  0  0  0
 82 79  1  0  0  0  0
 83 85  1  0  0  0  0
 83 77  1  0  0  0  0
 84 83  1  0  0  0  0
 86 83  1  0  0  0  0
M  END
$$$$
asd
 OpenBabel07242019243D

 86 90  0  0  1  0  0  0  0  0999 V2000
    0.0000    0.0000    0.0000 Ru  0  0  0  0  0  0  0  0  0  0  0  0
    1.9821    0.0000    0.0000 C   0  0  1  0  0  3  0  0  0  0  0  0
    2.9038    0.0000    0.9974 N   0  0  0  0  0  0  0  0  0  0  0  0
    4.2500   -0.3810    0.5235 C   0  0  1  0  0  0  0  0  0  0  0  0
    4.1234   -0.1136   -0.9786 C   0  0  2  0  0  0  0  0  0  0  0  0
    2.6651   -0.1577   -1.1743 N   0  0  0  0  0  0  0  0  0  0  0  0
    4.4807    0.8966   -1.1973 H   0  0  0  0  0  0  0  0  0  0  0  0
    4.4094   -1.4498    0.7163 H   0  0  0  0  0  0  0  0  0  0  0  0
    2.0990    0.1033   -2.4708 C   0  0  0  0  0  0  0  0  0  0  0  0
    2.0853    1.4283   -2.9568 C   0  0  0  0  0  0  0  0  0  0  0  0
    1.4917    1.6729   -4.1946 C   0  0  0  0  0  0  0  0  0  0  0  0
    0.9189    0.6475   -4.9575 C   0  0  0  0  0  0  0  0  0  0  0  0
    0.9947   -0.6575   -4.4717 C   0  0  0  0  0  0  0  0  0  0  0  0
    1.5974   -0.9588   -3.2428 C   0  0  0  0  0  0  0  0  0  0  0  0
    1.4673    2.6933   -4.5700 H   0  0  0  0  0  0  0  0  0  0  0  0
    0.5888   -1.4731   -5.0658 H   0  0  0  0  0  0  0  0  0  0  0  0
    1.7456   -2.4036   -2.8388 C   0  0  0  0  0  0  0  0  0  0  0  0
    2.5602   -2.8687   -3.4096 H   0  0  0  0  0  0  0  0  0  0  0  0
    1.9550   -2.5128   -1.7765 H   0  0  0  0  0  0  0  0  0  0  0  0
    0.8329   -2.9649   -3.0599 H   0  0  0  0  0  0  0  0  0  0  0  0
    2.7224    2.5647   -2.1969 C   0  0  0  0  0  0  0  0  0  0  0  0
    2.2828    3.5187   -2.4990 H   0  0  0  0  0  0  0  0  0  0  0  0
    3.7991    2.6185   -2.4049 H   0  0  0  0  0  0  0  0  0  0  0  0
    2.5872    2.4621   -1.1195 H   0  0  0  0  0  0  0  0  0  0  0  0
    0.2343    0.9543   -6.2668 C   0  0  0  0  0  0  0  0  0  0  0  0
    0.1262    0.0554   -6.8812 H   0  0  0  0  0  0  0  0  0  0  0  0
    0.7917    1.7010   -6.8425 H   0  0  0  0  0  0  0  0  0  0  0  0
   -0.7704    1.3620   -6.0966 H   0  0  0  0  0  0  0  0  0  0  0  0
    2.6299    0.1611    2.3905 C   0  0  0  0  0  0  0  0  0  0  0  0
    2.4672    1.4660    2.8895 C   0  0  0  0  0  0  0  0  0  0  0  0
    2.1494    1.6202    4.2412 C   0  0  0  0  0  0  0  0  0  0  0  0
    2.0033    2.6228    4.6352 H   0  0  0  0  0  0  0  0  0  0  0  0
    2.1855   -0.7616    4.5642 C   0  0  0  0  0  0  0  0  0  0  0  0
    2.5083   -0.9660    3.2183 C   0  0  0  0  0  0  0  0  0  0  0  0
    2.0673   -1.6273    5.2111 H   0  0  0  0  0  0  0  0  0  0  0  0
    1.9995    0.5194    5.0931 C   0  0  0  0  0  0  0  0  0  0  0  0
    2.6845   -2.3619    2.6775 C   0  0  0  0  0  0  0  0  0  0  0  0
    2.2830   -3.0981    3.3796 H   0  0  0  0  0  0  0  0  0  0  0  0
    3.7446   -2.6010    2.5249 H   0  0  0  0  0  0  0  0  0  0  0  0
    2.1701   -2.4835    1.7197 H   0  0  0  0  0  0  0  0  0  0  0  0
    3.4823    2.6827    1.4095 H   0  0  0  0  0  0  0  0  0  0  0  0
    2.5480    2.6652    1.9799 C   0  0  0  0  0  0  0  0  0  0  0  0
    2.4855    3.5907    2.5590 H   0  0  0  0  0  0  0  0  0  0  0  0
    1.7288    2.6578    1.2515 H   0  0  0  0  0  0  0  0  0  0  0  0
    1.6681    0.7144    6.5523 C   0  0  0  0  0  0  0  0  0  0  0  0
    1.0015    1.5706    6.6981 H   0  0  0  0  0  0  0  0  0  0  0  0
    2.5766    0.9061    7.1378 H   0  0  0  0  0  0  0  0  0  0  0  0
    1.1873   -0.1737    6.9736 H   0  0  0  0  0  0  0  0  0  0  0  0
   -0.2785    2.2818   -0.6950 Cl  0  0  0  0  0  0  0  0  0  0  0  0
   -0.0529   -2.4059    0.0613 Cl  0  0  0  0  0  0  0  0  0  0  0  0
   -0.3904    0.2548    1.7768 C   0  0  0  0  0  3  0  0  0  0  0  0
    0.3322    0.4445    2.5657 H   0  0  0  0  0  0  0  0  0  0  0  0
   -1.7644    0.1997    2.2156 C   0  0  0  0  0  0  0  0  0  0  0  0
   -2.7805   -0.0039    1.2504 C   0  0  0  0  0  0  0  0  0  0  0  0
   -4.1195   -0.0838    1.6250 C   0  0  0  0  0  0  0  0  0  0  0  0
   -4.4467    0.0430    2.9795 C   0  0  0  0  0  0  0  0  0  0  0  0
   -3.4631    0.2484    3.9534 C   0  0  0  0  0  0  0  0  0  0  0  0
   -2.1285    0.3259    3.5699 C   0  0  0  0  0  0  0  0  0  0  0  0
   -1.3435    0.4808    4.3054 H   0  0  0  0  0  0  0  0  0  0  0  0
   -3.7412    0.3459    4.9977 H   0  0  0  0  0  0  0  0  0  0  0  0
   -5.4908   -0.0187    3.2711 H   0  0  0  0  0  0  0  0  0  0  0  0
   -4.9044   -0.2385    0.8961 H   0  0  0  0  0  0  0  0  0  0  0  0
   -2.3022   -0.1218   -0.0234 O   0  0  0  0  0  0  0  0  0  0  0  0
    5.2503    0.3621    2.2823 H   0  0  0  0  0  0  0  0  0  0  0  0
    5.3512    1.4516    0.8842 H   0  0  0  0  0  0  0  0  0  0  0  0
    6.6755   -0.2340    0.9202 N   0  0  0  0  0  0  0  0  0  0  0  0
    5.3774    0.4011    1.1984 C   0  0  0  0  0  0  0  0  0  0  0  0
    7.4270    0.1411    1.4977 H   0  0  0  0  0  0  0  0  0  0  0  0
    7.2024   -0.2621   -0.6859 S   0  0  0  0  0  0  0  0  0  0  0  0
    6.2469   -1.4212   -1.3893 N   0  0  0  0  0  0  0  0  0  0  0  0
    6.9109    0.9922   -1.3908 O   0  0  0  0  0  0  0  0  0  0  0  0
    8.5715   -0.7688   -0.6165 O   0  0  0  0  0  0  0  0  0  0  0  0
    4.9407   -0.7235   -2.8855 H   0  0  0  0  0  0  0  0  0  0  0  0
    4.3544   -2.0605   -1.8879 H   0  0  0  0  0  0  0  0  0  0  0  0
    4.8839   -1.1074   -1.8647 C   0  0  0  0  0  0  0  0  0  0  0  0
    6.3284   -2.3019   -0.8887 H   0  0  0  0  0  0  0  0  0  0  0  0
   -3.2136   -0.1724   -1.1712 C   0  0  0  0  0  0  0  0  0  0  0  0
   -2.5828   -0.2006   -2.0649 H   0  0  0  0  0  0  0  0  0  0  0  0
   -4.0086    1.1221   -1.1583 C   0  0  0  0  0  0  0  0  0  0  0  0
   -4.6598    1.1749   -0.2802 H   0  0  0  0  0  0  0  0  0  0  0  0
   -3.3432    1.9888   -1.1548 H   0  0  0  0  0  0  0  0  0  0  0  0
   -4.6368    1.1603   -2.0541 H   0  0  0  0  0  0  0  0  0  0  0  0
   -4.0944   -1.4108   -1.0782 C   0  0  0  0  0  0  0  0  0  0  0  0
   -4.7522   -1.4547   -1.9524 H   0  0  0  0  0  0  0  0  0  0  0  0
   -3.5037   -2.3305   -1.0501 H   0  0  0  0  0  0  0  0  0  0  0  0
   -4.7044   -1.3595   -0.1723 H   0  0  0  0  0  0  0  0  0  0  0  0
  1 50  1  0  0  0  0
  1 51  1  0  0  0  0
  2  1  1  1  0  0  0
  2  3  1  0  0  0  0
  3 29  1  0  0  0  0
  4  8  1  1  0  0  0
  4  3  1  0  0  0  0
  4 67  1  0  0  0  0
  5  7  1  6  0  0  0
  5  4  1  0  0  0  0
  6  5  1  0  0  0  0
  6  2  1  0  0  0  0
  9  6  1  0  0  0  0
 10  9  1  0  0  0  0
 10 21  1  0  0  0  0
 11 10  2  0  0  0  0
 12 13  2  0  0  0  0
 12 11  1  0  0  0  0
 13 14  1  0  0  0  0
 14 17  1  0  0  0  0
 14  9  2  0  0  0  0
 15 11  1  0  0  0  0
 16 13  1  0  0  0  0
 17 19  1  0  0  0  0
 18 17  1  0  0  0  0
 20 17  1  0  0  0  0
 21 24  1  0  0  0  0
 22 21  1  0  0  0  0
 23 21  1  0  0  0  0
 25 28  1  0  0  0  0
 25 12  1  0  0  0  0
 26 25  1  0  0  0  0
 27 25  1  0  0  0  0
 29 30  2  0  0  0  0
 29 34  1  0  0  0  0
 30 31  1  0  0  0  0
 31 32  1  0  0  0  0
 31 36  2  0  0  0  0
 33 36  1  0  0  0  0
 33 35  1  0  0  0  0
 34 33  2  0  0  0  0
 36 45  1  0  0  0  0
 37 34  1  0  0  0  0
 37 38  1  0  0  0  0
 39 37  1  0  0  0  0
 40 37  1  0  0  0  0
 41 42  1  0  0  0  0
 42 43  1  0  0  0  0
 42 30  1  0  0  0  0
 44 42  1  0  0  0  0
 45 46  1  0  0  0  0
 45 48  1  0  0  0  0
 45 47  1  0  0  0  0
 49  1  1  0  0  0  0
 51 53  1  0  0  0  0
 51 52  1  0  0  0  0
 53 58  1  0  0  0  0
 54 55  1  0  0  0  0
 54 53  2  0  0  0  0
 55 56  2  0  0  0  0
 56 61  1  0  0  0  0
 56 57  1  0  0  0  0
 57 60  1  0  0  0  0
 58 57  2  0  0  0  0
 58 59  1  0  0  0  0
 62 55  1  0  0  0  0
 63 54  1  0  0  0  0
 65 67  1  0  0  0  0
 66 67  1  0  0  0  0
 66 68  1  0  0  0  0
 67 64  1  0  0  0  0
 69 72  2  0  0  0  0
 69 66  1  0  0  0  0
 70 76  1  0  0  0  0
 70 69  1  0  0  0  0
 71 69  2  0  0  0  0
 73 75  1  0  0  0  0
 74 75  1  0  0  0  0
 75 70  1  0  0  0  0
 75  5  1  0  0  0  0
 77 79  1  0  0  0  0
 77 83  1  0  0  0  0
 77 63  1  0  0  0  0
 78 77  1  0  0  0  0
 79 81  1  0  0  0  0
 79 80  1  0  0  0  0
 82 79  1  0  0  0  0
 83 85  1  0  0  0  0
 83 86  1  0  0  0  0
 84 83  1  0  0  0  0
M  END
