asd
 OpenBabel07242019243D

 86 90  0  0  1  0  0  0  0  0999 V2000
    0.0000    0.0000    0.0000 Ru  0  0  0  0  0  0  0  0  0  0  0  0
    1.9825    0.0000    0.0000 C   0  0  1  0  0  3  0  0  0  0  0  0
    2.9029    0.0000    0.9978 N   0  0  0  0  0  0  0  0  0  0  0  0
    4.2480   -0.3937    0.5268 C   0  0  1  0  0  0  0  0  0  0  0  0
    4.1238   -0.1225   -0.9772 C   0  0  2  0  0  0  0  0  0  0  0  0
    2.6657   -0.1645   -1.1733 N   0  0  0  0  0  0  0  0  0  0  0  0
    4.4826    0.8881   -1.1922 H   0  0  0  0  0  0  0  0  0  0  0  0
    4.3999   -1.4632    0.7138 H   0  0  0  0  0  0  0  0  0  0  0  0
    2.1025    0.0867   -2.4729 C   0  0  0  0  0  0  0  0  0  0  0  0
    2.0983    1.4072   -2.9719 C   0  0  0  0  0  0  0  0  0  0  0  0
    1.5116    1.6435   -4.2144 C   0  0  0  0  0  0  0  0  0  0  0  0
    0.9348    0.6144   -4.9695 C   0  0  0  0  0  0  0  0  0  0  0  0
    0.9985   -0.6857   -4.4694 C   0  0  0  0  0  0  0  0  0  0  0  0
    1.5943   -0.9788   -3.2351 C   0  0  0  0  0  0  0  0  0  0  0  0
    1.4950    2.6603   -4.5997 H   0  0  0  0  0  0  0  0  0  0  0  0
    0.5882   -1.5043   -5.0561 H   0  0  0  0  0  0  0  0  0  0  0  0
    1.7245   -2.4209   -2.8153 C   0  0  0  0  0  0  0  0  0  0  0  0
    2.5179   -2.9086   -3.3967 H   0  0  0  0  0  0  0  0  0  0  0  0
    1.9532   -2.5207   -1.7562 H   0  0  0  0  0  0  0  0  0  0  0  0
    0.7968   -2.9676   -3.0099 H   0  0  0  0  0  0  0  0  0  0  0  0
    2.7361    2.5478   -2.2191 C   0  0  0  0  0  0  0  0  0  0  0  0
    2.3034    3.5010   -2.5335 H   0  0  0  0  0  0  0  0  0  0  0  0
    3.8145    2.5947   -2.4200 H   0  0  0  0  0  0  0  0  0  0  0  0
    2.5929    2.4562   -1.1418 H   0  0  0  0  0  0  0  0  0  0  0  0
    0.2586    0.9123   -6.2852 C   0  0  0  0  0  0  0  0  0  0  0  0
    0.1456    0.0076   -6.8901 H   0  0  0  0  0  0  0  0  0  0  0  0
    0.8248    1.6481   -6.8666 H   0  0  0  0  0  0  0  0  0  0  0  0
   -0.7434    1.3303   -6.1240 H   0  0  0  0  0  0  0  0  0  0  0  0
    2.6283    0.1770    2.3887 C   0  0  0  0  0  0  0  0  0  0  0  0
    2.4677    1.4878    2.8728 C   0  0  0  0  0  0  0  0  0  0  0  0
    2.1494    1.6579    4.2225 C   0  0  0  0  0  0  0  0  0  0  0  0
    2.0047    2.6652    4.6049 H   0  0  0  0  0  0  0  0  0  0  0  0
    2.1822   -0.7200    4.5728 C   0  0  0  0  0  0  0  0  0  0  0  0
    2.5055   -0.9401    3.2295 C   0  0  0  0  0  0  0  0  0  0  0  0
    2.0629   -1.5782    5.2296 H   0  0  0  0  0  0  0  0  0  0  0  0
    1.9972    0.5671    5.0870 C   0  0  0  0  0  0  0  0  0  0  0  0
    2.6825   -2.3420    2.7050 C   0  0  0  0  0  0  0  0  0  0  0  0
    2.2825   -3.0705    3.4159 H   0  0  0  0  0  0  0  0  0  0  0  0
    3.7426   -2.5814    2.5540 H   0  0  0  0  0  0  0  0  0  0  0  0
    2.1675   -2.4751    1.7490 H   0  0  0  0  0  0  0  0  0  0  0  0
    3.4857    2.6842    1.3787 H   0  0  0  0  0  0  0  0  0  0  0  0
    2.5517    2.6764    1.9498 C   0  0  0  0  0  0  0  0  0  0  0  0
    2.4927    3.6085    2.5186 H   0  0  0  0  0  0  0  0  0  0  0  0
    1.7320    2.6637    1.2222 H   0  0  0  0  0  0  0  0  0  0  0  0
    1.6651    0.7793    6.5436 C   0  0  0  0  0  0  0  0  0  0  0  0
    0.9992    1.6377    6.6791 H   0  0  0  0  0  0  0  0  0  0  0  0
    2.5733    0.9768    7.1277 H   0  0  0  0  0  0  0  0  0  0  0  0
    1.1831   -0.1034    6.9749 H   0  0  0  0  0  0  0  0  0  0  0  0
   -0.2772    2.2715   -0.7275 Cl  0  0  0  0  0  0  0  0  0  0  0  0
   -0.0504   -2.4047    0.0949 Cl  0  0  0  0  0  0  0  0  0  0  0  0
   -0.3907    0.2789    1.7730 C   0  0  0  0  0  3  0  0  0  0  0  0
    0.3316    0.4809    2.5591 H   0  0  0  0  0  0  0  0  0  0  0  0
   -1.7645    0.2275    2.2129 C   0  0  0  0  0  0  0  0  0  0  0  0
   -2.7806    0.0095    1.2508 C   0  0  0  0  0  0  0  0  0  0  0  0
   -4.1195   -0.0682    1.6268 C   0  0  0  0  0  0  0  0  0  0  0  0
   -4.4467    0.0751    2.9796 C   0  0  0  0  0  0  0  0  0  0  0  0
   -3.4632    0.2949    3.9506 C   0  0  0  0  0  0  0  0  0  0  0  0
   -2.1289    0.3703    3.5658 C   0  0  0  0  0  0  0  0  0  0  0  0
   -1.3440    0.5359    4.2991 H   0  0  0  0  0  0  0  0  0  0  0  0
   -3.7413    0.4051    4.9936 H   0  0  0  0  0  0  0  0  0  0  0  0
   -5.4905    0.0149    3.2723 H   0  0  0  0  0  0  0  0  0  0  0  0
   -4.9042   -0.2336    0.9001 H   0  0  0  0  0  0  0  0  0  0  0  0
   -2.3024   -0.1238   -0.0215 O   0  0  0  0  0  0  0  0  0  0  0  0
    5.2317    0.3585    2.2910 H   0  0  0  0  0  0  0  0  0  0  0  0
    5.3580    1.4325    0.8827 H   0  0  0  0  0  0  0  0  0  0  0  0
    6.6789   -0.2567    0.9607 N   0  0  0  0  0  0  0  0  0  0  0  0
    5.3743    0.3851    1.2085 C   0  0  0  0  0  0  0  0  0  0  0  0
    7.4223    0.1952    1.4942 H   0  0  0  0  0  0  0  0  0  0  0  0
    7.1893   -0.3197   -0.6520 S   0  0  0  0  0  0  0  0  0  0  0  0
    6.1622   -1.4901   -1.2443 N   0  0  0  0  0  0  0  0  0  0  0  0
    6.9391    0.9637   -1.3270 O   0  0  0  0  0  0  0  0  0  0  0  0
    8.5385   -0.8852   -0.6285 O   0  0  0  0  0  0  0  0  0  0  0  0
    5.0058   -0.7052   -2.8678 H   0  0  0  0  0  0  0  0  0  0  0  0
    4.3091   -2.0463   -1.9327 H   0  0  0  0  0  0  0  0  0  0  0  0
    4.8796   -1.1189   -1.8616 C   0  0  0  0  0  0  0  0  0  0  0  0
    6.6952   -2.1992   -1.7405 H   0  0  0  0  0  0  0  0  0  0  0  0
   -3.2141   -0.1908   -1.1682 C   0  0  0  0  0  0  0  0  0  0  0  0
   -3.9902   -0.9154   -0.9034 H   0  0  0  0  0  0  0  0  0  0  0  0
   -2.4082   -0.7241   -2.3402 C   0  0  0  0  0  0  0  0  0  0  0  0
   -1.6299   -0.0144   -2.6377 H   0  0  0  0  0  0  0  0  0  0  0  0
   -1.9370   -1.6772   -2.0884 H   0  0  0  0  0  0  0  0  0  0  0  0
   -3.0795   -0.8740   -3.1920 H   0  0  0  0  0  0  0  0  0  0  0  0
   -3.8112    1.1842   -1.4350 C   0  0  0  0  0  0  0  0  0  0  0  0
   -4.5107    1.1192   -2.2748 H   0  0  0  0  0  0  0  0  0  0  0  0
   -4.3550    1.5680   -0.5676 H   0  0  0  0  0  0  0  0  0  0  0  0
   -3.0129    1.8877   -1.6866 H   0  0  0  0  0  0  0  0  0  0  0  0
  1 50  1  0  0  0  0
  1 51  1  0  0  0  0
  2  1  1  1  0  0  0
  2  3  1  0  0  0  0
  3 29  1  0  0  0  0
  4  8  1  1  0  0  0
  4  3  1  0  0  0  0
  4 67  1  0  0  0  0
  5  7  1  6  0  0  0
  5  4  1  0  0  0  0
  6  5  1  0  0  0  0
  6  2  1  0  0  0  0
  9  6  1  0  0  0  0
 10  9  1  0  0  0  0
 10 21  1  0  0  0  0
 11 10  2  0  0  0  0
 12 13  2  0  0  0  0
 12 11  1  0  0  0  0
 13 14  1  0  0  0  0
 14 17  1  0  0  0  0
 14  9  2  0  0  0  0
 15 11  1  0  0  0  0
 16 13  1  0  0  0  0
 17 19  1  0  0  0  0
 18 17  1  0  0  0  0
 20 17  1  0  0  0  0
 21 24  1  0  0  0  0
 22 21  1  0  0  0  0
 23 21  1  0  0  0  0
 25 28  1  0  0  0  0
 25 12  1  0  0  0  0
 26 25  1  0  0  0  0
 27 25  1  0  0  0  0
 29 30  2  0  0  0  0
 29 34  1  0  0  0  0
 30 31  1  0  0  0  0
 31 32  1  0  0  0  0
 31 36  2  0  0  0  0
 33 36  1  0  0  0  0
 33 35  1  0  0  0  0
 34 33  2  0  0  0  0
 36 45  1  0  0  0  0
 37 34  1  0  0  0  0
 37 38  1  0  0  0  0
 39 37  1  0  0  0  0
 40 37  1  0  0  0  0
 41 42  1  0  0  0  0
 42 43  1  0  0  0  0
 42 30  1  0  0  0  0
 44 42  1  0  0  0  0
 45 46  1  0  0  0  0
 45 48  1  0  0  0  0
 45 47  1  0  0  0  0
 49  1  1  0  0  0  0
 51 53  1  0  0  0  0
 51 52  1  0  0  0  0
 53 58  1  0  0  0  0
 54 55  1  0  0  0  0
 54 53  2  0  0  0  0
 55 56  2  0  0  0  0
 56 61  1  0  0  0  0
 56 57  1  0  0  0  0
 57 60  1  0  0  0  0
 58 57  2  0  0  0  0
 58 59  1  0  0  0  0
 62 55  1  0  0  0  0
 63 54  1  0  0  0  0
 65 67  1  0  0  0  0
 66 67  1  0  0  0  0
 66 68  1  0  0  0  0
 67 64  1  0  0  0  0
 69 72  2  0  0  0  0
 69 66  1  0  0  0  0
 70 69  1  0  0  0  0
 71 69  2  0  0  0  0
 73 75  1  0  0  0  0
 74 75  1  0  0  0  0
 75 70  1  0  0  0  0
 75  5  1  0  0  0  0
 76 70  1  0  0  0  0
 77 78  1  0  0  0  0
 77 63  1  0  0  0  0
 79 81  1  0  0  0  0
 79 77  1  0  0  0  0
 80 79  1  0  0  0  0
 82 79  1  0  0  0  0
 83 77  1  0  0  0  0
 83 85  1  0  0  0  0
 84 83  1  0  0  0  0
 86 83  1  0  0  0  0
M  END
$$$$
asd
 OpenBabel07242019243D

 86 90  0  0  1  0  0  0  0  0999 V2000
    0.0000    0.0000    0.0000 Ru  0  0  0  0  0  0  0  0  0  0  0  0
    1.9825    0.0000    0.0000 C   0  0  1  0  0  3  0  0  0  0  0  0
    2.9029    0.0000    0.9978 N   0  0  0  0  0  0  0  0  0  0  0  0
    4.2480   -0.3937    0.5268 C   0  0  1  0  0  0  0  0  0  0  0  0
    4.1238   -0.1225   -0.9772 C   0  0  2  0  0  0  0  0  0  0  0  0
    2.6657   -0.1645   -1.1733 N   0  0  0  0  0  0  0  0  0  0  0  0
    4.4826    0.8881   -1.1922 H   0  0  0  0  0  0  0  0  0  0  0  0
    4.3999   -1.4632    0.7138 H   0  0  0  0  0  0  0  0  0  0  0  0
    2.1025    0.0867   -2.4729 C   0  0  0  0  0  0  0  0  0  0  0  0
    2.0983    1.4072   -2.9719 C   0  0  0  0  0  0  0  0  0  0  0  0
    1.5116    1.6435   -4.2144 C   0  0  0  0  0  0  0  0  0  0  0  0
    0.9348    0.6144   -4.9695 C   0  0  0  0  0  0  0  0  0  0  0  0
    0.9985   -0.6857   -4.4694 C   0  0  0  0  0  0  0  0  0  0  0  0
    1.5943   -0.9788   -3.2351 C   0  0  0  0  0  0  0  0  0  0  0  0
    1.4950    2.6603   -4.5997 H   0  0  0  0  0  0  0  0  0  0  0  0
    0.5882   -1.5043   -5.0561 H   0  0  0  0  0  0  0  0  0  0  0  0
    1.7245   -2.4209   -2.8153 C   0  0  0  0  0  0  0  0  0  0  0  0
    2.5179   -2.9086   -3.3967 H   0  0  0  0  0  0  0  0  0  0  0  0
    1.9532   -2.5207   -1.7562 H   0  0  0  0  0  0  0  0  0  0  0  0
    0.7968   -2.9676   -3.0099 H   0  0  0  0  0  0  0  0  0  0  0  0
    2.7361    2.5478   -2.2191 C   0  0  0  0  0  0  0  0  0  0  0  0
    2.3034    3.5010   -2.5335 H   0  0  0  0  0  0  0  0  0  0  0  0
    3.8145    2.5947   -2.4200 H   0  0  0  0  0  0  0  0  0  0  0  0
    2.5929    2.4562   -1.1418 H   0  0  0  0  0  0  0  0  0  0  0  0
    0.2586    0.9123   -6.2852 C   0  0  0  0  0  0  0  0  0  0  0  0
    0.1456    0.0076   -6.8901 H   0  0  0  0  0  0  0  0  0  0  0  0
    0.8248    1.6481   -6.8666 H   0  0  0  0  0  0  0  0  0  0  0  0
   -0.7434    1.3303   -6.1240 H   0  0  0  0  0  0  0  0  0  0  0  0
    2.6283    0.1770    2.3887 C   0  0  0  0  0  0  0  0  0  0  0  0
    2.4677    1.4878    2.8728 C   0  0  0  0  0  0  0  0  0  0  0  0
    2.1494    1.6579    4.2225 C   0  0  0  0  0  0  0  0  0  0  0  0
    2.0047    2.6652    4.6049 H   0  0  0  0  0  0  0  0  0  0  0  0
    2.1822   -0.7200    4.5728 C   0  0  0  0  0  0  0  0  0  0  0  0
    2.5055   -0.9401    3.2295 C   0  0  0  0  0  0  0  0  0  0  0  0
    2.0629   -1.5782    5.2296 H   0  0  0  0  0  0  0  0  0  0  0  0
    1.9972    0.5671    5.0870 C   0  0  0  0  0  0  0  0  0  0  0  0
    2.6825   -2.3420    2.7050 C   0  0  0  0  0  0  0  0  0  0  0  0
    2.2825   -3.0705    3.4159 H   0  0  0  0  0  0  0  0  0  0  0  0
    3.7426   -2.5814    2.5540 H   0  0  0  0  0  0  0  0  0  0  0  0
    2.1675   -2.4751    1.7490 H   0  0  0  0  0  0  0  0  0  0  0  0
    3.4857    2.6842    1.3787 H   0  0  0  0  0  0  0  0  0  0  0  0
    2.5517    2.6764    1.9498 C   0  0  0  0  0  0  0  0  0  0  0  0
    2.4927    3.6085    2.5186 H   0  0  0  0  0  0  0  0  0  0  0  0
    1.7320    2.6637    1.2222 H   0  0  0  0  0  0  0  0  0  0  0  0
    1.6651    0.7793    6.5436 C   0  0  0  0  0  0  0  0  0  0  0  0
    0.9992    1.6377    6.6791 H   0  0  0  0  0  0  0  0  0  0  0  0
    2.5733    0.9768    7.1277 H   0  0  0  0  0  0  0  0  0  0  0  0
    1.1831   -0.1034    6.9749 H   0  0  0  0  0  0  0  0  0  0  0  0
   -0.2772    2.2715   -0.7275 Cl  0  0  0  0  0  0  0  0  0  0  0  0
   -0.0504   -2.4047    0.0949 Cl  0  0  0  0  0  0  0  0  0  0  0  0
   -0.3907    0.2789    1.7730 C   0  0  0  0  0  3  0  0  0  0  0  0
    0.3316    0.4809    2.5591 H   0  0  0  0  0  0  0  0  0  0  0  0
   -1.7645    0.2275    2.2129 C   0  0  0  0  0  0  0  0  0  0  0  0
   -2.7806    0.0095    1.2508 C   0  0  0  0  0  0  0  0  0  0  0  0
   -4.1195   -0.0682    1.6268 C   0  0  0  0  0  0  0  0  0  0  0  0
   -4.4467    0.0751    2.9796 C   0  0  0  0  0  0  0  0  0  0  0  0
   -3.4632    0.2949    3.9506 C   0  0  0  0  0  0  0  0  0  0  0  0
   -2.1289    0.3703    3.5658 C   0  0  0  0  0  0  0  0  0  0  0  0
   -1.3440    0.5359    4.2991 H   0  0  0  0  0  0  0  0  0  0  0  0
   -3.7413    0.4051    4.9936 H   0  0  0  0  0  0  0  0  0  0  0  0
   -5.4905    0.0149    3.2723 H   0  0  0  0  0  0  0  0  0  0  0  0
   -4.9042   -0.2336    0.9001 H   0  0  0  0  0  0  0  0  0  0  0  0
   -2.3024   -0.1238   -0.0215 O   0  0  0  0  0  0  0  0  0  0  0  0
    5.2317    0.3585    2.2910 H   0  0  0  0  0  0  0  0  0  0  0  0
    5.3580    1.4325    0.8827 H   0  0  0  0  0  0  0  0  0  0  0  0
    6.6789   -0.2567    0.9607 N   0  0  0  0  0  0  0  0  0  0  0  0
    5.3743    0.3851    1.2085 C   0  0  0  0  0  0  0  0  0  0  0  0
    7.4223    0.1952    1.4942 H   0  0  0  0  0  0  0  0  0  0  0  0
    7.1893   -0.3197   -0.6520 S   0  0  0  0  0  0  0  0  0  0  0  0
    6.1622   -1.4901   -1.2443 N   0  0  0  0  0  0  0  0  0  0  0  0
    6.9391    0.9637   -1.3270 O   0  0  0  0  0  0  0  0  0  0  0  0
    8.5385   -0.8852   -0.6285 O   0  0  0  0  0  0  0  0  0  0  0  0
    5.0058   -0.7052   -2.8678 H   0  0  0  0  0  0  0  0  0  0  0  0
    4.3091   -2.0463   -1.9327 H   0  0  0  0  0  0  0  0  0  0  0  0
    4.8796   -1.1189   -1.8616 C   0  0  0  0  0  0  0  0  0  0  0  0
    6.6952   -2.1992   -1.7405 H   0  0  0  0  0  0  0  0  0  0  0  0
   -3.2141   -0.1908   -1.1682 C   0  0  0  0  0  0  0  0  0  0  0  0
   -4.0426    0.4881   -0.9438 H   0  0  0  0  0  0  0  0  0  0  0  0
   -3.7362   -1.6159   -1.2323 C   0  0  0  0  0  0  0  0  0  0  0  0
   -2.9315   -2.3193   -1.4681 H   0  0  0  0  0  0  0  0  0  0  0  0
   -4.1911   -1.9081   -0.2827 H   0  0  0  0  0  0  0  0  0  0  0  0
   -4.4912   -1.6808   -2.0225 H   0  0  0  0  0  0  0  0  0  0  0  0
   -2.4830    0.2311   -2.4353 C   0  0  0  0  0  0  0  0  0  0  0  0
   -3.1778    0.2043   -3.2811 H   0  0  0  0  0  0  0  0  0  0  0  0
   -2.0816    1.2451   -2.3562 H   0  0  0  0  0  0  0  0  0  0  0  0
   -1.6564   -0.4581   -2.6281 H   0  0  0  0  0  0  0  0  0  0  0  0
  1 50  1  0  0  0  0
  1 51  1  0  0  0  0
  2  1  1  1  0  0  0
  2  3  1  0  0  0  0
  3 29  1  0  0  0  0
  4  8  1  1  0  0  0
  4  3  1  0  0  0  0
  4 67  1  0  0  0  0
  5  7  1  6  0  0  0
  5  4  1  0  0  0  0
  6  5  1  0  0  0  0
  6  2  1  0  0  0  0
  9  6  1  0  0  0  0
 10  9  1  0  0  0  0
 10 21  1  0  0  0  0
 11 10  2  0  0  0  0
 12 13  2  0  0  0  0
 12 11  1  0  0  0  0
 13 14  1  0  0  0  0
 14 17  1  0  0  0  0
 14  9  2  0  0  0  0
 15 11  1  0  0  0  0
 16 13  1  0  0  0  0
 17 19  1  0  0  0  0
 18 17  1  0  0  0  0
 20 17  1  0  0  0  0
 21 24  1  0  0  0  0
 22 21  1  0  0  0  0
 23 21  1  0  0  0  0
 25 28  1  0  0  0  0
 25 12  1  0  0  0  0
 26 25  1  0  0  0  0
 27 25  1  0  0  0  0
 29 30  2  0  0  0  0
 29 34  1  0  0  0  0
 30 31  1  0  0  0  0
 31 32  1  0  0  0  0
 31 36  2  0  0  0  0
 33 36  1  0  0  0  0
 33 35  1  0  0  0  0
 34 33  2  0  0  0  0
 36 45  1  0  0  0  0
 37 34  1  0  0  0  0
 37 38  1  0  0  0  0
 39 37  1  0  0  0  0
 40 37  1  0  0  0  0
 41 42  1  0  0  0  0
 42 43  1  0  0  0  0
 42 30  1  0  0  0  0
 44 42  1  0  0  0  0
 45 46  1  0  0  0  0
 45 48  1  0  0  0  0
 45 47  1  0  0  0  0
 49  1  1  0  0  0  0
 51 53  1  0  0  0  0
 51 52  1  0  0  0  0
 53 58  1  0  0  0  0
 54 55  1  0  0  0  0
 54 53  2  0  0  0  0
 55 56  2  0  0  0  0
 56 61  1  0  0  0  0
 56 57  1  0  0  0  0
 57 60  1  0  0  0  0
 58 57  2  0  0  0  0
 58 59  1  0  0  0  0
 62 55  1  0  0  0  0
 63 54  1  0  0  0  0
 65 67  1  0  0  0  0
 66 67  1  0  0  0  0
 66 68  1  0  0  0  0
 67 64  1  0  0  0  0
 69 72  2  0  0  0  0
 69 66  1  0  0  0  0
 70 69  1  0  0  0  0
 71 69  2  0  0  0  0
 73 75  1  0  0  0  0
 74 75  1  0  0  0  0
 75 70  1  0  0  0  0
 75  5  1  0  0  0  0
 76 70  1  0  0  0  0
 77 78  1  0  0  0  0
 77 63  1  0  0  0  0
 79 77  1  0  0  0  0
 79 81  1  0  0  0  0
 80 79  1  0  0  0  0
 82 79  1  0  0  0  0
 83 85  1  0  0  0  0
 83 77  1  0  0  0  0
 84 83  1  0  0  0  0
 86 83  1  0  0  0  0
M  END
$$$$
asd
 OpenBabel07242019243D

 86 90  0  0  1  0  0  0  0  0999 V2000
    0.0000    0.0000    0.0000 Ru  0  0  0  0  0  0  0  0  0  0  0  0
    1.9825    0.0000    0.0000 C   0  0  1  0  0  3  0  0  0  0  0  0
    2.9029    0.0000    0.9978 N   0  0  0  0  0  0  0  0  0  0  0  0
    4.2480   -0.3937    0.5268 C   0  0  1  0  0  0  0  0  0  0  0  0
    4.1238   -0.1225   -0.9772 C   0  0  2  0  0  0  0  0  0  0  0  0
    2.6657   -0.1645   -1.1733 N   0  0  0  0  0  0  0  0  0  0  0  0
    4.4826    0.8881   -1.1922 H   0  0  0  0  0  0  0  0  0  0  0  0
    4.3999   -1.4632    0.7138 H   0  0  0  0  0  0  0  0  0  0  0  0
    2.1025    0.0867   -2.4729 C   0  0  0  0  0  0  0  0  0  0  0  0
    2.0983    1.4072   -2.9719 C   0  0  0  0  0  0  0  0  0  0  0  0
    1.5116    1.6435   -4.2144 C   0  0  0  0  0  0  0  0  0  0  0  0
    0.9348    0.6144   -4.9695 C   0  0  0  0  0  0  0  0  0  0  0  0
    0.9985   -0.6857   -4.4694 C   0  0  0  0  0  0  0  0  0  0  0  0
    1.5943   -0.9788   -3.2351 C   0  0  0  0  0  0  0  0  0  0  0  0
    1.4950    2.6603   -4.5997 H   0  0  0  0  0  0  0  0  0  0  0  0
    0.5882   -1.5043   -5.0561 H   0  0  0  0  0  0  0  0  0  0  0  0
    1.7245   -2.4209   -2.8153 C   0  0  0  0  0  0  0  0  0  0  0  0
    2.5179   -2.9086   -3.3967 H   0  0  0  0  0  0  0  0  0  0  0  0
    1.9532   -2.5207   -1.7562 H   0  0  0  0  0  0  0  0  0  0  0  0
    0.7968   -2.9676   -3.0099 H   0  0  0  0  0  0  0  0  0  0  0  0
    2.7361    2.5478   -2.2191 C   0  0  0  0  0  0  0  0  0  0  0  0
    2.3034    3.5010   -2.5335 H   0  0  0  0  0  0  0  0  0  0  0  0
    3.8145    2.5947   -2.4200 H   0  0  0  0  0  0  0  0  0  0  0  0
    2.5929    2.4562   -1.1418 H   0  0  0  0  0  0  0  0  0  0  0  0
    0.2586    0.9123   -6.2852 C   0  0  0  0  0  0  0  0  0  0  0  0
    0.1456    0.0076   -6.8901 H   0  0  0  0  0  0  0  0  0  0  0  0
    0.8248    1.6481   -6.8666 H   0  0  0  0  0  0  0  0  0  0  0  0
   -0.7434    1.3303   -6.1240 H   0  0  0  0  0  0  0  0  0  0  0  0
    2.6283    0.1770    2.3887 C   0  0  0  0  0  0  0  0  0  0  0  0
    2.4677    1.4878    2.8728 C   0  0  0  0  0  0  0  0  0  0  0  0
    2.1494    1.6579    4.2225 C   0  0  0  0  0  0  0  0  0  0  0  0
    2.0047    2.6652    4.6049 H   0  0  0  0  0  0  0  0  0  0  0  0
    2.1822   -0.7200    4.5728 C   0  0  0  0  0  0  0  0  0  0  0  0
    2.5055   -0.9401    3.2295 C   0  0  0  0  0  0  0  0  0  0  0  0
    2.0629   -1.5782    5.2296 H   0  0  0  0  0  0  0  0  0  0  0  0
    1.9972    0.5671    5.0870 C   0  0  0  0  0  0  0  0  0  0  0  0
    2.6825   -2.3420    2.7050 C   0  0  0  0  0  0  0  0  0  0  0  0
    2.2825   -3.0705    3.4159 H   0  0  0  0  0  0  0  0  0  0  0  0
    3.7426   -2.5814    2.5540 H   0  0  0  0  0  0  0  0  0  0  0  0
    2.1675   -2.4751    1.7490 H   0  0  0  0  0  0  0  0  0  0  0  0
    3.4857    2.6842    1.3787 H   0  0  0  0  0  0  0  0  0  0  0  0
    2.5517    2.6764    1.9498 C   0  0  0  0  0  0  0  0  0  0  0  0
    2.4927    3.6085    2.5186 H   0  0  0  0  0  0  0  0  0  0  0  0
    1.7320    2.6637    1.2222 H   0  0  0  0  0  0  0  0  0  0  0  0
    1.6651    0.7793    6.5436 C   0  0  0  0  0  0  0  0  0  0  0  0
    0.9992    1.6377    6.6791 H   0  0  0  0  0  0  0  0  0  0  0  0
    2.5733    0.9768    7.1277 H   0  0  0  0  0  0  0  0  0  0  0  0
    1.1831   -0.1034    6.9749 H   0  0  0  0  0  0  0  0  0  0  0  0
   -0.2772    2.2715   -0.7275 Cl  0  0  0  0  0  0  0  0  0  0  0  0
   -0.0504   -2.4047    0.0949 Cl  0  0  0  0  0  0  0  0  0  0  0  0
   -0.3907    0.2789    1.7730 C   0  0  0  0  0  3  0  0  0  0  0  0
    0.3316    0.4809    2.5591 H   0  0  0  0  0  0  0  0  0  0  0  0
   -1.7645    0.2275    2.2129 C   0  0  0  0  0  0  0  0  0  0  0  0
   -2.7806    0.0095    1.2508 C   0  0  0  0  0  0  0  0  0  0  0  0
   -4.1195   -0.0682    1.6268 C   0  0  0  0  0  0  0  0  0  0  0  0
   -4.4467    0.0751    2.9796 C   0  0  0  0  0  0  0  0  0  0  0  0
   -3.4632    0.2949    3.9506 C   0  0  0  0  0  0  0  0  0  0  0  0
   -2.1289    0.3703    3.5658 C   0  0  0  0  0  0  0  0  0  0  0  0
   -1.3440    0.5359    4.2991 H   0  0  0  0  0  0  0  0  0  0  0  0
   -3.7413    0.4051    4.9936 H   0  0  0  0  0  0  0  0  0  0  0  0
   -5.4905    0.0149    3.2723 H   0  0  0  0  0  0  0  0  0  0  0  0
   -4.9042   -0.2336    0.9001 H   0  0  0  0  0  0  0  0  0  0  0  0
   -2.3024   -0.1238   -0.0215 O   0  0  0  0  0  0  0  0  0  0  0  0
    5.2317    0.3585    2.2910 H   0  0  0  0  0  0  0  0  0  0  0  0
    5.3580    1.4325    0.8827 H   0  0  0  0  0  0  0  0  0  0  0  0
    6.6789   -0.2567    0.9607 N   0  0  0  0  0  0  0  0  0  0  0  0
    5.3743    0.3851    1.2085 C   0  0  0  0  0  0  0  0  0  0  0  0
    7.4223    0.1952    1.4942 H   0  0  0  0  0  0  0  0  0  0  0  0
    7.1893   -0.3197   -0.6520 S   0  0  0  0  0  0  0  0  0  0  0  0
    6.1622   -1.4901   -1.2443 N   0  0  0  0  0  0  0  0  0  0  0  0
    6.9391    0.9637   -1.3270 O   0  0  0  0  0  0  0  0  0  0  0  0
    8.5385   -0.8852   -0.6285 O   0  0  0  0  0  0  0  0  0  0  0  0
    5.0058   -0.7052   -2.8678 H   0  0  0  0  0  0  0  0  0  0  0  0
    4.3091   -2.0463   -1.9327 H   0  0  0  0  0  0  0  0  0  0  0  0
    4.8796   -1.1189   -1.8616 C   0  0  0  0  0  0  0  0  0  0  0  0
    6.6952   -2.1992   -1.7405 H   0  0  0  0  0  0  0  0  0  0  0  0
   -3.2141   -0.1908   -1.1682 C   0  0  0  0  0  0  0  0  0  0  0  0
   -2.5837   -0.2297   -2.0618 H   0  0  0  0  0  0  0  0  0  0  0  0
   -4.0115    1.1022   -1.1722 C   0  0  0  0  0  0  0  0  0  0  0  0
   -4.6630    1.1653   -0.2950 H   0  0  0  0  0  0  0  0  0  0  0  0
   -3.3477    1.9702   -1.1799 H   0  0  0  0  0  0  0  0  0  0  0  0
   -4.6396    1.1277   -2.0686 H   0  0  0  0  0  0  0  0  0  0  0  0
   -4.0926   -1.4295   -1.0585 C   0  0  0  0  0  0  0  0  0  0  0  0
   -4.7507   -1.4861   -1.9317 H   0  0  0  0  0  0  0  0  0  0  0  0
   -3.5000   -2.3476   -1.0186 H   0  0  0  0  0  0  0  0  0  0  0  0
   -4.7024   -1.3673   -0.1532 H   0  0  0  0  0  0  0  0  0  0  0  0
  1 50  1  0  0  0  0
  1 51  1  0  0  0  0
  2  1  1  1  0  0  0
  2  3  1  0  0  0  0
  3 29  1  0  0  0  0
  4  8  1  1  0  0  0
  4  3  1  0  0  0  0
  4 67  1  0  0  0  0
  5  7  1  6  0  0  0
  5  4  1  0  0  0  0
  6  5  1  0  0  0  0
  6  2  1  0  0  0  0
  9  6  1  0  0  0  0
 10  9  1  0  0  0  0
 10 21  1  0  0  0  0
 11 10  2  0  0  0  0
 12 13  2  0  0  0  0
 12 11  1  0  0  0  0
 13 14  1  0  0  0  0
 14 17  1  0  0  0  0
 14  9  2  0  0  0  0
 15 11  1  0  0  0  0
 16 13  1  0  0  0  0
 17 19  1  0  0  0  0
 18 17  1  0  0  0  0
 20 17  1  0  0  0  0
 21 24  1  0  0  0  0
 22 21  1  0  0  0  0
 23 21  1  0  0  0  0
 25 28  1  0  0  0  0
 25 12  1  0  0  0  0
 26 25  1  0  0  0  0
 27 25  1  0  0  0  0
 29 30  2  0  0  0  0
 29 34  1  0  0  0  0
 30 31  1  0  0  0  0
 31 32  1  0  0  0  0
 31 36  2  0  0  0  0
 33 36  1  0  0  0  0
 33 35  1  0  0  0  0
 34 33  2  0  0  0  0
 36 45  1  0  0  0  0
 37 34  1  0  0  0  0
 37 38  1  0  0  0  0
 39 37  1  0  0  0  0
 40 37  1  0  0  0  0
 41 42  1  0  0  0  0
 42 43  1  0  0  0  0
 42 30  1  0  0  0  0
 44 42  1  0  0  0  0
 45 46  1  0  0  0  0
 45 48  1  0  0  0  0
 45 47  1  0  0  0  0
 49  1  1  0  0  0  0
 51 53  1  0  0  0  0
 51 52  1  0  0  0  0
 53 58  1  0  0  0  0
 54 55  1  0  0  0  0
 54 53  2  0  0  0  0
 55 56  2  0  0  0  0
 56 61  1  0  0  0  0
 56 57  1  0  0  0  0
 57 60  1  0  0  0  0
 58 57  2  0  0  0  0
 58 59  1  0  0  0  0
 62 55  1  0  0  0  0
 63 54  1  0  0  0  0
 65 67  1  0  0  0  0
 66 67  1  0  0  0  0
 66 68  1  0  0  0  0
 67 64  1  0  0  0  0
 69 72  2  0  0  0  0
 69 66  1  0  0  0  0
 70 69  1  0  0  0  0
 71 69  2  0  0  0  0
 73 75  1  0  0  0  0
 74 75  1  0  0  0  0
 75 70  1  0  0  0  0
 75  5  1  0  0  0  0
 76 70  1  0  0  0  0
 77 83  1  0  0  0  0
 77 63  1  0  0  0  0
 78 77  1  0  0  0  0
 79 77  1  0  0  0  0
 79 80  1  0  0  0  0
 81 79  1  0  0  0  0
 82 79  1  0  0  0  0
 83 85  1  0  0  0  0
 83 86  1  0  0  0  0
 84 83  1  0  0  0  0
M  END
