86
asd
Ru         0.00000        0.00000        0.00000
C          1.98110        0.00000        0.00000
N          2.89840        0.00000        0.99756
C          4.22827       -0.43109        0.52252
C          4.12937       -0.15099       -0.97888
N          2.66889       -0.18559       -1.17045
H          4.51040        0.85025       -1.21958
H          4.31479       -1.51163        0.67377
C          2.09258        0.01774       -2.47113
C          2.05512        1.32145       -3.00847
C          1.43951        1.50922       -4.24567
C          0.86879        0.44668       -4.95770
C          0.97275       -0.83820       -4.42424
C          1.59796       -1.08175       -3.19425
H          1.39460        2.51339       -4.66074
H          0.57109       -1.68177       -4.98076
C          1.78387       -2.50515       -2.73357
H          2.61418       -2.96883       -3.28238
H          1.99626       -2.56618       -1.66804
H          0.88787       -3.09982       -2.93453
C          2.69078        2.49175       -2.30150
H          2.24574        3.43082       -2.64025
H          3.76604        2.54030       -2.51792
H          2.56297        2.43262       -1.21983
C          0.15462        0.69230       -6.26411
H          0.08707       -0.22240       -6.86098
H          0.66437        1.45704       -6.85975
H         -0.86884        1.04811       -6.08839
C          2.64819        0.22110        2.38577
C          2.48360        1.54433        2.83290
C          2.20536        1.75214        4.18657
H          2.05956        2.76903        4.54219
C          2.27905       -0.61271        4.60925
C          2.56150       -0.87084        3.26411
H          2.19034       -1.45111        5.29571
C          2.09650        0.68811        5.08918
C          2.73579       -2.28642        2.77565
H          2.36514       -2.99698        3.51990
H          3.79278       -2.52277        2.59781
H          2.19239       -2.45124        1.84033
H          3.40958        2.69452        1.24031
C          2.51547        2.70616        1.87252
H          2.49615        3.65437        2.41683
H          1.65202        2.67761        1.19760
C          1.81321        0.94070        6.54967
H          1.18566        1.82706        6.68639
H          2.74454        1.11127        7.10527
H          1.30947        0.08560        7.01118
Cl        -0.30339        2.24633       -0.79106
Cl        -0.03110       -2.40210        0.16839
C         -0.38473        0.32393        1.76671
H          0.34011        0.54953        2.54484
C         -1.75687        0.27340        2.21211
C         -2.77331        0.02164        1.25821
C         -4.11045       -0.05981        1.63905
C         -4.43601        0.11361        2.98886
C         -3.45262        0.36691        3.95171
C         -2.11979        0.44612        3.56198
H         -1.33530        0.63706        4.28948
H         -3.72951        0.49951        4.99237
H         -5.47850        0.05011        3.28578
H         -4.89488       -0.25141        0.91840
O         -2.29625       -0.14040       -0.01116
H          5.56708       -0.21263        2.20830
H          5.15773        1.31113        1.41790
N          6.65707        0.26366        0.47727
C          5.39444        0.26114        1.24029
H          6.82862        1.11164       -0.05636
S          7.12944       -1.07620       -0.38195
N          6.30972       -0.90860       -1.84835
O          8.54237       -0.93618       -0.72795
O          6.66772       -2.23603        0.39047
H          4.53946       -1.05152       -2.88871
H          4.61662       -2.18934       -1.52803
C          4.86115       -1.17052       -1.85166
H          6.80785       -1.44160       -2.56006
C         -3.20770       -0.24754       -1.15501
H         -3.97427       -0.97484       -0.87097
C         -2.39571       -0.80017       -2.31426
H         -1.62902       -0.08742       -2.63447
H         -1.90960       -1.73906       -2.03827
H         -3.06695       -0.98394       -3.15953
C         -3.82193        1.11263       -1.45611
H         -4.52389        1.01691       -2.29092
H         -4.36700        1.51315       -0.59703
H         -3.03307        1.81841       -1.72975
86
asd
Ru         0.00000        0.00000        0.00000
C          1.98110        0.00000        0.00000
N          2.89840        0.00000        0.99756
C          4.22827       -0.43109        0.52252
C          4.12937       -0.15099       -0.97888
N          2.66889       -0.18559       -1.17045
H          4.51040        0.85025       -1.21958
H          4.31479       -1.51163        0.67377
C          2.09258        0.01774       -2.47113
C          2.05512        1.32145       -3.00847
C          1.43951        1.50922       -4.24567
C          0.86879        0.44668       -4.95770
C          0.97275       -0.83820       -4.42424
C          1.59796       -1.08175       -3.19425
H          1.39460        2.51339       -4.66074
H          0.57109       -1.68177       -4.98076
C          1.78387       -2.50515       -2.73357
H          2.61418       -2.96883       -3.28238
H          1.99626       -2.56618       -1.66804
H          0.88787       -3.09982       -2.93453
C          2.69078        2.49175       -2.30150
H          2.24574        3.43082       -2.64025
H          3.76604        2.54030       -2.51792
H          2.56297        2.43262       -1.21983
C          0.15462        0.69230       -6.26411
H          0.08707       -0.22240       -6.86098
H          0.66437        1.45704       -6.85975
H         -0.86884        1.04811       -6.08839
C          2.64819        0.22110        2.38577
C          2.48360        1.54433        2.83290
C          2.20536        1.75214        4.18657
H          2.05956        2.76903        4.54219
C          2.27905       -0.61271        4.60925
C          2.56150       -0.87084        3.26411
H          2.19034       -1.45111        5.29571
C          2.09650        0.68811        5.08918
C          2.73579       -2.28642        2.77565
H          2.36514       -2.99698        3.51990
H          3.79278       -2.52277        2.59781
H          2.19239       -2.45124        1.84033
H          3.40958        2.69452        1.24031
C          2.51547        2.70616        1.87252
H          2.49615        3.65437        2.41683
H          1.65202        2.67761        1.19760
C          1.81321        0.94070        6.54967
H          1.18566        1.82706        6.68639
H          2.74454        1.11127        7.10527
H          1.30947        0.08560        7.01118
Cl        -0.30339        2.24633       -0.79106
Cl        -0.03110       -2.40210        0.16839
C         -0.38473        0.32393        1.76671
H          0.34011        0.54953        2.54484
C         -1.75687        0.27340        2.21211
C         -2.77331        0.02164        1.25821
C         -4.11045       -0.05981        1.63905
C         -4.43601        0.11361        2.98886
C         -3.45262        0.36691        3.95171
C         -2.11979        0.44612        3.56198
H         -1.33530        0.63706        4.28948
H         -3.72951        0.49951        4.99237
H         -5.47850        0.05011        3.28578
H         -4.89488       -0.25141        0.91840
O         -2.29625       -0.14040       -0.01116
H          5.56708       -0.21263        2.20830
H          5.15773        1.31113        1.41790
N          6.65707        0.26366        0.47727
C          5.39444        0.26114        1.24029
H          6.82862        1.11164       -0.05636
S          7.12944       -1.07620       -0.38195
N          6.30972       -0.90860       -1.84835
O          8.54237       -0.93618       -0.72795
O          6.66772       -2.23603        0.39047
H          4.53946       -1.05152       -2.88871
H          4.61662       -2.18934       -1.52803
C          4.86115       -1.17052       -1.85166
H          6.80785       -1.44160       -2.56006
C         -3.20770       -0.24754       -1.15501
H         -4.04407        0.42649       -0.94662
C         -3.71210       -1.68051       -1.18287
H         -2.90062       -2.38042       -1.40644
H         -4.15988       -1.95577       -0.22489
H         -4.46998       -1.77280       -1.96766
C         -2.48278        0.15115       -2.43311
H         -3.17883        0.09806       -3.27662
H         -2.09081        1.17043       -2.37865
H         -1.65017       -0.53465       -2.61126
86
asd
Ru         0.00000        0.00000        0.00000
C          1.98110        0.00000        0.00000
N          2.89840        0.00000        0.99756
C          4.22827       -0.43109        0.52252
C          4.12937       -0.15099       -0.97888
N          2.66889       -0.18559       -1.17045
H          4.51040        0.85025       -1.21958
H          4.31479       -1.51163        0.67377
C          2.09258        0.01774       -2.47113
C          2.05512        1.32145       -3.00847
C          1.43951        1.50922       -4.24567
C          0.86879        0.44668       -4.95770
C          0.97275       -0.83820       -4.42424
C          1.59796       -1.08175       -3.19425
H          1.39460        2.51339       -4.66074
H          0.57109       -1.68177       -4.98076
C          1.78387       -2.50515       -2.73357
H          2.61418       -2.96883       -3.28238
H          1.99626       -2.56618       -1.66804
H          0.88787       -3.09982       -2.93453
C          2.69078        2.49175       -2.30150
H          2.24574        3.43082       -2.64025
H          3.76604        2.54030       -2.51792
H          2.56297        2.43262       -1.21983
C          0.15462        0.69230       -6.26411
H          0.08707       -0.22240       -6.86098
H          0.66437        1.45704       -6.85975
H         -0.86884        1.04811       -6.08839
C          2.64819        0.22110        2.38577
C          2.48360        1.54433        2.83290
C          2.20536        1.75214        4.18657
H          2.05956        2.76903        4.54219
C          2.27905       -0.61271        4.60925
C          2.56150       -0.87084        3.26411
H          2.19034       -1.45111        5.29571
C          2.09650        0.68811        5.08918
C          2.73579       -2.28642        2.77565
H          2.36514       -2.99698        3.51990
H          3.79278       -2.52277        2.59781
H          2.19239       -2.45124        1.84033
H          3.40958        2.69452        1.24031
C          2.51547        2.70616        1.87252
H          2.49615        3.65437        2.41683
H          1.65202        2.67761        1.19760
C          1.81321        0.94070        6.54967
H          1.18566        1.82706        6.68639
H          2.74454        1.11127        7.10527
H          1.30947        0.08560        7.01118
Cl        -0.30339        2.24633       -0.79106
Cl        -0.03110       -2.40210        0.16839
C         -0.38473        0.32393        1.76671
H          0.34011        0.54953        2.54484
C         -1.75687        0.27340        2.21211
C         -2.77331        0.02164        1.25821
C         -4.11045       -0.05981        1.63905
C         -4.43601        0.11361        2.98886
C         -3.45262        0.36691        3.95171
C         -2.11979        0.44612        3.56198
H         -1.33530        0.63706        4.28948
H         -3.72951        0.49951        4.99237
H         -5.47850        0.05011        3.28578
H         -4.89488       -0.25141        0.91840
O         -2.29625       -0.14040       -0.01116
H          5.56708       -0.21263        2.20830
H          5.15773        1.31113        1.41790
N          6.65707        0.26366        0.47727
C          5.39444        0.26114        1.24029
H          6.82862        1.11164       -0.05636
S          7.12944       -1.07620       -0.38195
N          6.30972       -0.90860       -1.84835
O          8.54237       -0.93618       -0.72795
O          6.66772       -2.23603        0.39047
H          4.53946       -1.05152       -2.88871
H          4.61662       -2.18934       -1.52803
C          4.86115       -1.17052       -1.85166
H          6.80785       -1.44160       -2.56006
C         -3.20770       -0.24754       -1.15501
H         -2.57694       -0.30105       -2.04751
C         -4.02129        1.03517       -1.19088
H         -4.67730        1.11114       -0.31781
H         -3.36867        1.91116       -1.21757
H         -4.64645        1.03169       -2.08976
C         -4.07082       -1.49376       -1.01365
H         -4.72586       -1.58230       -1.88651
H         -3.46684       -2.40280       -0.94748
H         -4.68363       -1.41463       -0.11170
