asd
 OpenBabel07242019243D

 86 90  0  0  1  0  0  0  0  0999 V2000
    0.0000    0.0000    0.0000 Ru  0  0  0  0  0  0  0  0  0  0  0  0
    1.9825    0.0000    0.0000 C   0  0  1  0  0  3  0  0  0  0  0  0
    2.9039    0.0000    0.9965 N   0  0  0  0  0  0  0  0  0  0  0  0
    4.2581   -0.3486    0.5231 C   0  0  1  0  0  0  0  0  0  0  0  0
    4.1232   -0.1309   -0.9870 C   0  0  2  0  0  0  0  0  0  0  0  0
    2.6635   -0.1536   -1.1763 N   0  0  0  0  0  0  0  0  0  0  0  0
    4.4994    0.8618   -1.2497 H   0  0  0  0  0  0  0  0  0  0  0  0
    4.4508   -1.4064    0.7460 H   0  0  0  0  0  0  0  0  0  0  0  0
    2.0987    0.1361   -2.4676 C   0  0  0  0  0  0  0  0  0  0  0  0
    2.0897    1.4715   -2.9244 C   0  0  0  0  0  0  0  0  0  0  0  0
    1.4968    1.7453   -4.1565 C   0  0  0  0  0  0  0  0  0  0  0  0
    0.9198    0.7389   -4.9412 C   0  0  0  0  0  0  0  0  0  0  0  0
    0.9904   -0.5767   -4.4837 C   0  0  0  0  0  0  0  0  0  0  0  0
    1.5922   -0.9068   -3.2619 C   0  0  0  0  0  0  0  0  0  0  0  0
    1.4757    2.7738   -4.5095 H   0  0  0  0  0  0  0  0  0  0  0  0
    0.5805   -1.3774   -5.0949 H   0  0  0  0  0  0  0  0  0  0  0  0
    1.7344   -2.3602   -2.8879 C   0  0  0  0  0  0  0  0  0  0  0  0
    2.5634   -2.8109   -3.4494 H   0  0  0  0  0  0  0  0  0  0  0  0
    1.9193   -2.4933   -1.8238 H   0  0  0  0  0  0  0  0  0  0  0  0
    0.8280   -2.9173   -3.1436 H   0  0  0  0  0  0  0  0  0  0  0  0
    2.7307    2.5892   -2.1403 C   0  0  0  0  0  0  0  0  0  0  0  0
    2.2886    3.5501   -2.4158 H   0  0  0  0  0  0  0  0  0  0  0  0
    3.8061    2.6495   -2.3536 H   0  0  0  0  0  0  0  0  0  0  0  0
    2.6028    2.4605   -1.0649 H   0  0  0  0  0  0  0  0  0  0  0  0
    0.2357    1.0767   -6.2431 C   0  0  0  0  0  0  0  0  0  0  0  0
    0.1240    0.1918   -6.8770 H   0  0  0  0  0  0  0  0  0  0  0  0
    0.7954    1.8339   -6.8026 H   0  0  0  0  0  0  0  0  0  0  0  0
   -0.7675    1.4841   -6.0633 H   0  0  0  0  0  0  0  0  0  0  0  0
    2.6306    0.1339    2.3929 C   0  0  0  0  0  0  0  0  0  0  0  0
    2.4619    1.4278    2.9180 C   0  0  0  0  0  0  0  0  0  0  0  0
    2.1479    1.5534    4.2736 C   0  0  0  0  0  0  0  0  0  0  0  0
    1.9977    2.5473    4.6876 H   0  0  0  0  0  0  0  0  0  0  0  0
    2.1953   -0.8339    4.5488 C   0  0  0  0  0  0  0  0  0  0  0  0
    2.5154   -1.0100    3.1982 C   0  0  0  0  0  0  0  0  0  0  0  0
    2.0820   -1.7128    5.1785 H   0  0  0  0  0  0  0  0  0  0  0  0
    2.0059    0.4353    5.1039 C   0  0  0  0  0  0  0  0  0  0  0  0
    2.6939   -2.3948    2.6299 C   0  0  0  0  0  0  0  0  0  0  0  0
    2.2894   -3.1449    3.3154 H   0  0  0  0  0  0  0  0  0  0  0  0
    3.7545   -2.6317    2.4773 H   0  0  0  0  0  0  0  0  0  0  0  0
    2.1835   -2.4978    1.6679 H   0  0  0  0  0  0  0  0  0  0  0  0
    3.4683    2.6882    1.4681 H   0  0  0  0  0  0  0  0  0  0  0  0
    2.5309    2.6452    2.0319 C   0  0  0  0  0  0  0  0  0  0  0  0
    2.4515    3.5584    2.6281 H   0  0  0  0  0  0  0  0  0  0  0  0
    1.7165    2.6397    1.2983 H   0  0  0  0  0  0  0  0  0  0  0  0
    1.6783    0.5996    6.5678 C   0  0  0  0  0  0  0  0  0  0  0  0
    1.0084    1.4496    6.7328 H   0  0  0  0  0  0  0  0  0  0  0  0
    2.5878    0.7835    7.1542 H   0  0  0  0  0  0  0  0  0  0  0  0
    1.2027   -0.2990    6.9726 H   0  0  0  0  0  0  0  0  0  0  0  0
   -0.2781    2.2923   -0.6599 Cl  0  0  0  0  0  0  0  0  0  0  0  0
   -0.0542   -2.4070    0.0261 Cl  0  0  0  0  0  0  0  0  0  0  0  0
   -0.3897    0.2265    1.7807 C   0  0  0  0  0  3  0  0  0  0  0  0
    0.3330    0.4048    2.5722 H   0  0  0  0  0  0  0  0  0  0  0  0
   -1.7633    0.1622    2.2197 C   0  0  0  0  0  0  0  0  0  0  0  0
   -2.7800   -0.0259    1.2519 C   0  0  0  0  0  0  0  0  0  0  0  0
   -4.1187   -0.1139    1.6263 C   0  0  0  0  0  0  0  0  0  0  0  0
   -4.4449   -0.0111    2.9830 C   0  0  0  0  0  0  0  0  0  0  0  0
   -3.4607    0.1786    3.9596 C   0  0  0  0  0  0  0  0  0  0  0  0
   -2.1265    0.2647    3.5763 C   0  0  0  0  0  0  0  0  0  0  0  0
   -1.3411    0.4078    4.3137 H   0  0  0  0  0  0  0  0  0  0  0  0
   -3.7380    0.2576    5.0056 H   0  0  0  0  0  0  0  0  0  0  0  0
   -5.4886   -0.0793    3.2745 H   0  0  0  0  0  0  0  0  0  0  0  0
   -4.9040   -0.2568    0.8954 H   0  0  0  0  0  0  0  0  0  0  0  0
   -2.3025   -0.1210   -0.0240 O   0  0  0  0  0  0  0  0  0  0  0  0
    5.2530    0.5225    2.2419 H   0  0  0  0  0  0  0  0  0  0  0  0
    5.3278    1.5211    0.7849 H   0  0  0  0  0  0  0  0  0  0  0  0
    6.7197   -0.0305    0.9050 N   0  0  0  0  0  0  0  0  0  0  0  0
    5.3717    0.4949    1.1567 C   0  0  0  0  0  0  0  0  0  0  0  0
    6.9517   -0.8465    1.4689 H   0  0  0  0  0  0  0  0  0  0  0  0
    7.1968   -0.2985   -0.6855 S   0  0  0  0  0  0  0  0  0  0  0  0
    6.2378   -1.4504   -1.4168 N   0  0  0  0  0  0  0  0  0  0  0  0
    6.9507    0.9523   -1.4036 O   0  0  0  0  0  0  0  0  0  0  0  0
    8.5267   -0.8943   -0.5821 O   0  0  0  0  0  0  0  0  0  0  0  0
    4.8559   -0.8481   -2.8865 H   0  0  0  0  0  0  0  0  0  0  0  0
    4.3230   -2.1256   -1.7848 H   0  0  0  0  0  0  0  0  0  0  0  0
    4.8523   -1.1738   -1.8432 C   0  0  0  0  0  0  0  0  0  0  0  0
    6.3824   -2.3630   -0.9942 H   0  0  0  0  0  0  0  0  0  0  0  0
   -3.2146   -0.1525   -1.1719 C   0  0  0  0  0  0  0  0  0  0  0  0
   -3.9909   -0.8845   -0.9290 H   0  0  0  0  0  0  0  0  0  0  0  0
   -2.4092   -0.6502   -2.3599 C   0  0  0  0  0  0  0  0  0  0  0  0
   -1.6303    0.0677   -2.6355 H   0  0  0  0  0  0  0  0  0  0  0  0
   -1.9386   -1.6109   -2.1374 H   0  0  0  0  0  0  0  0  0  0  0  0
   -3.0806   -0.7736   -3.2157 H   0  0  0  0  0  0  0  0  0  0  0  0
   -3.8110    1.2303   -1.3965 C   0  0  0  0  0  0  0  0  0  0  0  0
   -4.5110    1.1915   -2.2376 H   0  0  0  0  0  0  0  0  0  0  0  0
   -4.3544    1.5878   -0.5176 H   0  0  0  0  0  0  0  0  0  0  0  0
   -3.0126    1.9407   -1.6268 H   0  0  0  0  0  0  0  0  0  0  0  0
  1 50  1  0  0  0  0
  1 51  1  0  0  0  0
  2  1  1  1  0  0  0
  2  3  1  0  0  0  0
  3 29  1  0  0  0  0
  4  8  1  1  0  0  0
  4  3  1  0  0  0  0
  4 67  1  0  0  0  0
  5  7  1  6  0  0  0
  5  4  1  0  0  0  0
  6  5  1  0  0  0  0
  6  2  1  0  0  0  0
  9  6  1  0  0  0  0
 10  9  1  0  0  0  0
 10 21  1  0  0  0  0
 11 10  2  0  0  0  0
 12 13  2  0  0  0  0
 12 11  1  0  0  0  0
 13 14  1  0  0  0  0
 14 17  1  0  0  0  0
 14  9  2  0  0  0  0
 15 11  1  0  0  0  0
 16 13  1  0  0  0  0
 17 19  1  0  0  0  0
 18 17  1  0  0  0  0
 20 17  1  0  0  0  0
 21 24  1  0  0  0  0
 22 21  1  0  0  0  0
 23 21  1  0  0  0  0
 25 28  1  0  0  0  0
 25 12  1  0  0  0  0
 26 25  1  0  0  0  0
 27 25  1  0  0  0  0
 29 30  2  0  0  0  0
 29 34  1  0  0  0  0
 30 31  1  0  0  0  0
 31 32  1  0  0  0  0
 31 36  2  0  0  0  0
 33 36  1  0  0  0  0
 33 35  1  0  0  0  0
 34 33  2  0  0  0  0
 36 45  1  0  0  0  0
 37 34  1  0  0  0  0
 37 38  1  0  0  0  0
 39 37  1  0  0  0  0
 40 37  1  0  0  0  0
 41 42  1  0  0  0  0
 42 43  1  0  0  0  0
 42 30  1  0  0  0  0
 44 42  1  0  0  0  0
 45 46  1  0  0  0  0
 45 48  1  0  0  0  0
 45 47  1  0  0  0  0
 49  1  1  0  0  0  0
 51 53  1  0  0  0  0
 51 52  1  0  0  0  0
 53 58  1  0  0  0  0
 54 55  1  0  0  0  0
 54 53  2  0  0  0  0
 55 56  2  0  0  0  0
 56 61  1  0  0  0  0
 56 57  1  0  0  0  0
 57 60  1  0  0  0  0
 58 57  2  0  0  0  0
 58 59  1  0  0  0  0
 62 55  1  0  0  0  0
 63 54  1  0  0  0  0
 65 67  1  0  0  0  0
 66 67  1  0  0  0  0
 66 68  1  0  0  0  0
 67 64  1  0  0  0  0
 69 72  2  0  0  0  0
 69 66  1  0  0  0  0
 70 76  1  0  0  0  0
 70 69  1  0  0  0  0
 71 69  2  0  0  0  0
 73 75  1  0  0  0  0
 75 74  1  0  0  0  0
 75 70  1  0  0  0  0
 75  5  1  0  0  0  0
 77 78  1  0  0  0  0
 77 63  1  0  0  0  0
 79 81  1  0  0  0  0
 79 77  1  0  0  0  0
 80 79  1  0  0  0  0
 82 79  1  0  0  0  0
 83 77  1  0  0  0  0
 83 85  1  0  0  0  0
 84 83  1  0  0  0  0
 86 83  1  0  0  0  0
M  END
$$$$
asd
 OpenBabel07242019243D

 86 90  0  0  1  0  0  0  0  0999 V2000
    0.0000    0.0000    0.0000 Ru  0  0  0  0  0  0  0  0  0  0  0  0
    1.9825    0.0000    0.0000 C   0  0  1  0  0  3  0  0  0  0  0  0
    2.9039    0.0000    0.9965 N   0  0  0  0  0  0  0  0  0  0  0  0
    4.2581   -0.3486    0.5231 C   0  0  1  0  0  0  0  0  0  0  0  0
    4.1232   -0.1309   -0.9870 C   0  0  2  0  0  0  0  0  0  0  0  0
    2.6635   -0.1536   -1.1763 N   0  0  0  0  0  0  0  0  0  0  0  0
    4.4994    0.8618   -1.2497 H   0  0  0  0  0  0  0  0  0  0  0  0
    4.4508   -1.4064    0.7460 H   0  0  0  0  0  0  0  0  0  0  0  0
    2.0987    0.1361   -2.4676 C   0  0  0  0  0  0  0  0  0  0  0  0
    2.0897    1.4715   -2.9244 C   0  0  0  0  0  0  0  0  0  0  0  0
    1.4968    1.7453   -4.1565 C   0  0  0  0  0  0  0  0  0  0  0  0
    0.9198    0.7389   -4.9412 C   0  0  0  0  0  0  0  0  0  0  0  0
    0.9904   -0.5767   -4.4837 C   0  0  0  0  0  0  0  0  0  0  0  0
    1.5922   -0.9068   -3.2619 C   0  0  0  0  0  0  0  0  0  0  0  0
    1.4757    2.7738   -4.5095 H   0  0  0  0  0  0  0  0  0  0  0  0
    0.5805   -1.3774   -5.0949 H   0  0  0  0  0  0  0  0  0  0  0  0
    1.7344   -2.3602   -2.8879 C   0  0  0  0  0  0  0  0  0  0  0  0
    2.5634   -2.8109   -3.4494 H   0  0  0  0  0  0  0  0  0  0  0  0
    1.9193   -2.4933   -1.8238 H   0  0  0  0  0  0  0  0  0  0  0  0
    0.8280   -2.9173   -3.1436 H   0  0  0  0  0  0  0  0  0  0  0  0
    2.7307    2.5892   -2.1403 C   0  0  0  0  0  0  0  0  0  0  0  0
    2.2886    3.5501   -2.4158 H   0  0  0  0  0  0  0  0  0  0  0  0
    3.8061    2.6495   -2.3536 H   0  0  0  0  0  0  0  0  0  0  0  0
    2.6028    2.4605   -1.0649 H   0  0  0  0  0  0  0  0  0  0  0  0
    0.2357    1.0767   -6.2431 C   0  0  0  0  0  0  0  0  0  0  0  0
    0.1240    0.1918   -6.8770 H   0  0  0  0  0  0  0  0  0  0  0  0
    0.7954    1.8339   -6.8026 H   0  0  0  0  0  0  0  0  0  0  0  0
   -0.7675    1.4841   -6.0633 H   0  0  0  0  0  0  0  0  0  0  0  0
    2.6306    0.1339    2.3929 C   0  0  0  0  0  0  0  0  0  0  0  0
    2.4619    1.4278    2.9180 C   0  0  0  0  0  0  0  0  0  0  0  0
    2.1479    1.5534    4.2736 C   0  0  0  0  0  0  0  0  0  0  0  0
    1.9977    2.5473    4.6876 H   0  0  0  0  0  0  0  0  0  0  0  0
    2.1953   -0.8339    4.5488 C   0  0  0  0  0  0  0  0  0  0  0  0
    2.5154   -1.0100    3.1982 C   0  0  0  0  0  0  0  0  0  0  0  0
    2.0820   -1.7128    5.1785 H   0  0  0  0  0  0  0  0  0  0  0  0
    2.0059    0.4353    5.1039 C   0  0  0  0  0  0  0  0  0  0  0  0
    2.6939   -2.3948    2.6299 C   0  0  0  0  0  0  0  0  0  0  0  0
    2.2894   -3.1449    3.3154 H   0  0  0  0  0  0  0  0  0  0  0  0
    3.7545   -2.6317    2.4773 H   0  0  0  0  0  0  0  0  0  0  0  0
    2.1835   -2.4978    1.6679 H   0  0  0  0  0  0  0  0  0  0  0  0
    3.4683    2.6882    1.4681 H   0  0  0  0  0  0  0  0  0  0  0  0
    2.5309    2.6452    2.0319 C   0  0  0  0  0  0  0  0  0  0  0  0
    2.4515    3.5584    2.6281 H   0  0  0  0  0  0  0  0  0  0  0  0
    1.7165    2.6397    1.2983 H   0  0  0  0  0  0  0  0  0  0  0  0
    1.6783    0.5996    6.5678 C   0  0  0  0  0  0  0  0  0  0  0  0
    1.0084    1.4496    6.7328 H   0  0  0  0  0  0  0  0  0  0  0  0
    2.5878    0.7835    7.1542 H   0  0  0  0  0  0  0  0  0  0  0  0
    1.2027   -0.2990    6.9726 H   0  0  0  0  0  0  0  0  0  0  0  0
   -0.2781    2.2923   -0.6599 Cl  0  0  0  0  0  0  0  0  0  0  0  0
   -0.0542   -2.4070    0.0261 Cl  0  0  0  0  0  0  0  0  0  0  0  0
   -0.3897    0.2265    1.7807 C   0  0  0  0  0  3  0  0  0  0  0  0
    0.3330    0.4048    2.5722 H   0  0  0  0  0  0  0  0  0  0  0  0
   -1.7633    0.1622    2.2197 C   0  0  0  0  0  0  0  0  0  0  0  0
   -2.7800   -0.0259    1.2519 C   0  0  0  0  0  0  0  0  0  0  0  0
   -4.1187   -0.1139    1.6263 C   0  0  0  0  0  0  0  0  0  0  0  0
   -4.4449   -0.0111    2.9830 C   0  0  0  0  0  0  0  0  0  0  0  0
   -3.4607    0.1786    3.9596 C   0  0  0  0  0  0  0  0  0  0  0  0
   -2.1265    0.2647    3.5763 C   0  0  0  0  0  0  0  0  0  0  0  0
   -1.3411    0.4078    4.3137 H   0  0  0  0  0  0  0  0  0  0  0  0
   -3.7380    0.2576    5.0056 H   0  0  0  0  0  0  0  0  0  0  0  0
   -5.4886   -0.0793    3.2745 H   0  0  0  0  0  0  0  0  0  0  0  0
   -4.9040   -0.2568    0.8954 H   0  0  0  0  0  0  0  0  0  0  0  0
   -2.3025   -0.1210   -0.0240 O   0  0  0  0  0  0  0  0  0  0  0  0
    5.2530    0.5225    2.2419 H   0  0  0  0  0  0  0  0  0  0  0  0
    5.3278    1.5211    0.7849 H   0  0  0  0  0  0  0  0  0  0  0  0
    6.7197   -0.0305    0.9050 N   0  0  0  0  0  0  0  0  0  0  0  0
    5.3717    0.4949    1.1567 C   0  0  0  0  0  0  0  0  0  0  0  0
    6.9517   -0.8465    1.4689 H   0  0  0  0  0  0  0  0  0  0  0  0
    7.1968   -0.2985   -0.6855 S   0  0  0  0  0  0  0  0  0  0  0  0
    6.2378   -1.4504   -1.4168 N   0  0  0  0  0  0  0  0  0  0  0  0
    6.9507    0.9523   -1.4036 O   0  0  0  0  0  0  0  0  0  0  0  0
    8.5267   -0.8943   -0.5821 O   0  0  0  0  0  0  0  0  0  0  0  0
    4.8559   -0.8481   -2.8865 H   0  0  0  0  0  0  0  0  0  0  0  0
    4.3230   -2.1256   -1.7848 H   0  0  0  0  0  0  0  0  0  0  0  0
    4.8523   -1.1738   -1.8432 C   0  0  0  0  0  0  0  0  0  0  0  0
    6.3824   -2.3630   -0.9942 H   0  0  0  0  0  0  0  0  0  0  0  0
   -3.2146   -0.1525   -1.1719 C   0  0  0  0  0  0  0  0  0  0  0  0
   -4.0426    0.5197   -0.9265 H   0  0  0  0  0  0  0  0  0  0  0  0
   -3.7373   -1.5748   -1.2791 C   0  0  0  0  0  0  0  0  0  0  0  0
   -2.9329   -2.2711   -1.5361 H   0  0  0  0  0  0  0  0  0  0  0  0
   -4.1923   -1.8954   -0.3388 H   0  0  0  0  0  0  0  0  0  0  0  0
   -4.4925   -1.6154   -2.0708 H   0  0  0  0  0  0  0  0  0  0  0  0
   -2.4837    0.3075   -2.4259 C   0  0  0  0  0  0  0  0  0  0  0  0
   -3.1787    0.3069   -3.2719 H   0  0  0  0  0  0  0  0  0  0  0  0
   -2.0818    1.3184   -2.3161 H   0  0  0  0  0  0  0  0  0  0  0  0
   -1.6576   -0.3759   -2.6399 H   0  0  0  0  0  0  0  0  0  0  0  0
  1 50  1  0  0  0  0
  1 51  1  0  0  0  0
  2  1  1  1  0  0  0
  2  3  1  0  0  0  0
  3 29  1  0  0  0  0
  4  8  1  1  0  0  0
  4  3  1  0  0  0  0
  4 67  1  0  0  0  0
  5  7  1  6  0  0  0
  5  4  1  0  0  0  0
  6  5  1  0  0  0  0
  6  2  1  0  0  0  0
  9  6  1  0  0  0  0
 10  9  1  0  0  0  0
 10 21  1  0  0  0  0
 11 10  2  0  0  0  0
 12 13  2  0  0  0  0
 12 11  1  0  0  0  0
 13 14  1  0  0  0  0
 14 17  1  0  0  0  0
 14  9  2  0  0  0  0
 15 11  1  0  0  0  0
 16 13  1  0  0  0  0
 17 19  1  0  0  0  0
 18 17  1  0  0  0  0
 20 17  1  0  0  0  0
 21 24  1  0  0  0  0
 22 21  1  0  0  0  0
 23 21  1  0  0  0  0
 25 28  1  0  0  0  0
 25 12  1  0  0  0  0
 26 25  1  0  0  0  0
 27 25  1  0  0  0  0
 29 30  2  0  0  0  0
 29 34  1  0  0  0  0
 30 31  1  0  0  0  0
 31 32  1  0  0  0  0
 31 36  2  0  0  0  0
 33 36  1  0  0  0  0
 33 35  1  0  0  0  0
 34 33  2  0  0  0  0
 36 45  1  0  0  0  0
 37 34  1  0  0  0  0
 37 38  1  0  0  0  0
 39 37  1  0  0  0  0
 40 37  1  0  0  0  0
 41 42  1  0  0  0  0
 42 43  1  0  0  0  0
 42 30  1  0  0  0  0
 44 42  1  0  0  0  0
 45 46  1  0  0  0  0
 45 48  1  0  0  0  0
 45 47  1  0  0  0  0
 49  1  1  0  0  0  0
 51 53  1  0  0  0  0
 51 52  1  0  0  0  0
 53 58  1  0  0  0  0
 54 55  1  0  0  0  0
 54 53  2  0  0  0  0
 55 56  2  0  0  0  0
 56 61  1  0  0  0  0
 56 57  1  0  0  0  0
 57 60  1  0  0  0  0
 58 57  2  0  0  0  0
 58 59  1  0  0  0  0
 62 55  1  0  0  0  0
 63 54  1  0  0  0  0
 65 67  1  0  0  0  0
 66 67  1  0  0  0  0
 66 68  1  0  0  0  0
 67 64  1  0  0  0  0
 69 72  2  0  0  0  0
 69 66  1  0  0  0  0
 70 76  1  0  0  0  0
 70 69  1  0  0  0  0
 71 69  2  0  0  0  0
 73 75  1  0  0  0  0
 75 74  1  0  0  0  0
 75 70  1  0  0  0  0
 75  5  1  0  0  0  0
 77 78  1  0  0  0  0
 77 63  1  0  0  0  0
 79 77  1  0  0  0  0
 79 81  1  0  0  0  0
 80 79  1  0  0  0  0
 82 79  1  0  0  0  0
 83 85  1  0  0  0  0
 83 77  1  0  0  0  0
 84 83  1  0  0  0  0
 86 83  1  0  0  0  0
M  END
$$$$
asd
 OpenBabel07242019243D

 86 90  0  0  1  0  0  0  0  0999 V2000
    0.0000    0.0000    0.0000 Ru  0  0  0  0  0  0  0  0  0  0  0  0
    1.9825    0.0000    0.0000 C   0  0  1  0  0  3  0  0  0  0  0  0
    2.9039    0.0000    0.9965 N   0  0  0  0  0  0  0  0  0  0  0  0
    4.2581   -0.3486    0.5231 C   0  0  1  0  0  0  0  0  0  0  0  0
    4.1232   -0.1309   -0.9870 C   0  0  2  0  0  0  0  0  0  0  0  0
    2.6635   -0.1536   -1.1763 N   0  0  0  0  0  0  0  0  0  0  0  0
    4.4994    0.8618   -1.2497 H   0  0  0  0  0  0  0  0  0  0  0  0
    4.4508   -1.4064    0.7460 H   0  0  0  0  0  0  0  0  0  0  0  0
    2.0987    0.1361   -2.4676 C   0  0  0  0  0  0  0  0  0  0  0  0
    2.0897    1.4715   -2.9244 C   0  0  0  0  0  0  0  0  0  0  0  0
    1.4968    1.7453   -4.1565 C   0  0  0  0  0  0  0  0  0  0  0  0
    0.9198    0.7389   -4.9412 C   0  0  0  0  0  0  0  0  0  0  0  0
    0.9904   -0.5767   -4.4837 C   0  0  0  0  0  0  0  0  0  0  0  0
    1.5922   -0.9068   -3.2619 C   0  0  0  0  0  0  0  0  0  0  0  0
    1.4757    2.7738   -4.5095 H   0  0  0  0  0  0  0  0  0  0  0  0
    0.5805   -1.3774   -5.0949 H   0  0  0  0  0  0  0  0  0  0  0  0
    1.7344   -2.3602   -2.8879 C   0  0  0  0  0  0  0  0  0  0  0  0
    2.5634   -2.8109   -3.4494 H   0  0  0  0  0  0  0  0  0  0  0  0
    1.9193   -2.4933   -1.8238 H   0  0  0  0  0  0  0  0  0  0  0  0
    0.8280   -2.9173   -3.1436 H   0  0  0  0  0  0  0  0  0  0  0  0
    2.7307    2.5892   -2.1403 C   0  0  0  0  0  0  0  0  0  0  0  0
    2.2886    3.5501   -2.4158 H   0  0  0  0  0  0  0  0  0  0  0  0
    3.8061    2.6495   -2.3536 H   0  0  0  0  0  0  0  0  0  0  0  0
    2.6028    2.4605   -1.0649 H   0  0  0  0  0  0  0  0  0  0  0  0
    0.2357    1.0767   -6.2431 C   0  0  0  0  0  0  0  0  0  0  0  0
    0.1240    0.1918   -6.8770 H   0  0  0  0  0  0  0  0  0  0  0  0
    0.7954    1.8339   -6.8026 H   0  0  0  0  0  0  0  0  0  0  0  0
   -0.7675    1.4841   -6.0633 H   0  0  0  0  0  0  0  0  0  0  0  0
    2.6306    0.1339    2.3929 C   0  0  0  0  0  0  0  0  0  0  0  0
    2.4619    1.4278    2.9180 C   0  0  0  0  0  0  0  0  0  0  0  0
    2.1479    1.5534    4.2736 C   0  0  0  0  0  0  0  0  0  0  0  0
    1.9977    2.5473    4.6876 H   0  0  0  0  0  0  0  0  0  0  0  0
    2.1953   -0.8339    4.5488 C   0  0  0  0  0  0  0  0  0  0  0  0
    2.5154   -1.0100    3.1982 C   0  0  0  0  0  0  0  0  0  0  0  0
    2.0820   -1.7128    5.1785 H   0  0  0  0  0  0  0  0  0  0  0  0
    2.0059    0.4353    5.1039 C   0  0  0  0  0  0  0  0  0  0  0  0
    2.6939   -2.3948    2.6299 C   0  0  0  0  0  0  0  0  0  0  0  0
    2.2894   -3.1449    3.3154 H   0  0  0  0  0  0  0  0  0  0  0  0
    3.7545   -2.6317    2.4773 H   0  0  0  0  0  0  0  0  0  0  0  0
    2.1835   -2.4978    1.6679 H   0  0  0  0  0  0  0  0  0  0  0  0
    3.4683    2.6882    1.4681 H   0  0  0  0  0  0  0  0  0  0  0  0
    2.5309    2.6452    2.0319 C   0  0  0  0  0  0  0  0  0  0  0  0
    2.4515    3.5584    2.6281 H   0  0  0  0  0  0  0  0  0  0  0  0
    1.7165    2.6397    1.2983 H   0  0  0  0  0  0  0  0  0  0  0  0
    1.6783    0.5996    6.5678 C   0  0  0  0  0  0  0  0  0  0  0  0
    1.0084    1.4496    6.7328 H   0  0  0  0  0  0  0  0  0  0  0  0
    2.5878    0.7835    7.1542 H   0  0  0  0  0  0  0  0  0  0  0  0
    1.2027   -0.2990    6.9726 H   0  0  0  0  0  0  0  0  0  0  0  0
   -0.2781    2.2923   -0.6599 Cl  0  0  0  0  0  0  0  0  0  0  0  0
   -0.0542   -2.4070    0.0261 Cl  0  0  0  0  0  0  0  0  0  0  0  0
   -0.3897    0.2265    1.7807 C   0  0  0  0  0  3  0  0  0  0  0  0
    0.3330    0.4048    2.5722 H   0  0  0  0  0  0  0  0  0  0  0  0
   -1.7633    0.1622    2.2197 C   0  0  0  0  0  0  0  0  0  0  0  0
   -2.7800   -0.0259    1.2519 C   0  0  0  0  0  0  0  0  0  0  0  0
   -4.1187   -0.1139    1.6263 C   0  0  0  0  0  0  0  0  0  0  0  0
   -4.4449   -0.0111    2.9830 C   0  0  0  0  0  0  0  0  0  0  0  0
   -3.4607    0.1786    3.9596 C   0  0  0  0  0  0  0  0  0  0  0  0
   -2.1265    0.2647    3.5763 C   0  0  0  0  0  0  0  0  0  0  0  0
   -1.3411    0.4078    4.3137 H   0  0  0  0  0  0  0  0  0  0  0  0
   -3.7380    0.2576    5.0056 H   0  0  0  0  0  0  0  0  0  0  0  0
   -5.4886   -0.0793    3.2745 H   0  0  0  0  0  0  0  0  0  0  0  0
   -4.9040   -0.2568    0.8954 H   0  0  0  0  0  0  0  0  0  0  0  0
   -2.3025   -0.1210   -0.0240 O   0  0  0  0  0  0  0  0  0  0  0  0
    5.2530    0.5225    2.2419 H   0  0  0  0  0  0  0  0  0  0  0  0
    5.3278    1.5211    0.7849 H   0  0  0  0  0  0  0  0  0  0  0  0
    6.7197   -0.0305    0.9050 N   0  0  0  0  0  0  0  0  0  0  0  0
    5.3717    0.4949    1.1567 C   0  0  0  0  0  0  0  0  0  0  0  0
    6.9517   -0.8465    1.4689 H   0  0  0  0  0  0  0  0  0  0  0  0
    7.1968   -0.2985   -0.6855 S   0  0  0  0  0  0  0  0  0  0  0  0
    6.2378   -1.4504   -1.4168 N   0  0  0  0  0  0  0  0  0  0  0  0
    6.9507    0.9523   -1.4036 O   0  0  0  0  0  0  0  0  0  0  0  0
    8.5267   -0.8943   -0.5821 O   0  0  0  0  0  0  0  0  0  0  0  0
    4.8559   -0.8481   -2.8865 H   0  0  0  0  0  0  0  0  0  0  0  0
    4.3230   -2.1256   -1.7848 H   0  0  0  0  0  0  0  0  0  0  0  0
    4.8523   -1.1738   -1.8432 C   0  0  0  0  0  0  0  0  0  0  0  0
    6.3824   -2.3630   -0.9942 H   0  0  0  0  0  0  0  0  0  0  0  0
   -3.2146   -0.1525   -1.1719 C   0  0  0  0  0  0  0  0  0  0  0  0
   -2.5844   -0.1644   -2.0664 H   0  0  0  0  0  0  0  0  0  0  0  0
   -4.0112    1.1405   -1.1361 C   0  0  0  0  0  0  0  0  0  0  0  0
   -4.6621    1.1772   -0.2569 H   0  0  0  0  0  0  0  0  0  0  0  0
   -3.3469    2.0079   -1.1178 H   0  0  0  0  0  0  0  0  0  0  0  0
   -4.6398    1.1937   -2.0309 H   0  0  0  0  0  0  0  0  0  0  0  0
   -4.0938   -1.3936   -1.0998 C   0  0  0  0  0  0  0  0  0  0  0  0
   -4.7522   -1.4233   -1.9741 H   0  0  0  0  0  0  0  0  0  0  0  0
   -3.5016   -2.3127   -1.0881 H   0  0  0  0  0  0  0  0  0  0  0  0
   -4.7032   -1.3586   -0.1928 H   0  0  0  0  0  0  0  0  0  0  0  0
  1 50  1  0  0  0  0
  1 51  1  0  0  0  0
  2  1  1  1  0  0  0
  2  3  1  0  0  0  0
  3 29  1  0  0  0  0
  4  8  1  1  0  0  0
  4  3  1  0  0  0  0
  4 67  1  0  0  0  0
  5  7  1  6  0  0  0
  5  4  1  0  0  0  0
  6  5  1  0  0  0  0
  6  2  1  0  0  0  0
  9  6  1  0  0  0  0
 10  9  1  0  0  0  0
 10 21  1  0  0  0  0
 11 10  2  0  0  0  0
 12 13  2  0  0  0  0
 12 11  1  0  0  0  0
 13 14  1  0  0  0  0
 14 17  1  0  0  0  0
 14  9  2  0  0  0  0
 15 11  1  0  0  0  0
 16 13  1  0  0  0  0
 17 19  1  0  0  0  0
 18 17  1  0  0  0  0
 20 17  1  0  0  0  0
 21 24  1  0  0  0  0
 22 21  1  0  0  0  0
 23 21  1  0  0  0  0
 25 28  1  0  0  0  0
 25 12  1  0  0  0  0
 26 25  1  0  0  0  0
 27 25  1  0  0  0  0
 29 30  2  0  0  0  0
 29 34  1  0  0  0  0
 30 31  1  0  0  0  0
 31 32  1  0  0  0  0
 31 36  2  0  0  0  0
 33 36  1  0  0  0  0
 33 35  1  0  0  0  0
 34 33  2  0  0  0  0
 36 45  1  0  0  0  0
 37 34  1  0  0  0  0
 37 38  1  0  0  0  0
 39 37  1  0  0  0  0
 40 37  1  0  0  0  0
 41 42  1  0  0  0  0
 42 43  1  0  0  0  0
 42 30  1  0  0  0  0
 44 42  1  0  0  0  0
 45 46  1  0  0  0  0
 45 48  1  0  0  0  0
 45 47  1  0  0  0  0
 49  1  1  0  0  0  0
 51 53  1  0  0  0  0
 51 52  1  0  0  0  0
 53 58  1  0  0  0  0
 54 55  1  0  0  0  0
 54 53  2  0  0  0  0
 55 56  2  0  0  0  0
 56 61  1  0  0  0  0
 56 57  1  0  0  0  0
 57 60  1  0  0  0  0
 58 57  2  0  0  0  0
 58 59  1  0  0  0  0
 62 55  1  0  0  0  0
 63 54  1  0  0  0  0
 65 67  1  0  0  0  0
 66 67  1  0  0  0  0
 66 68  1  0  0  0  0
 67 64  1  0  0  0  0
 69 72  2  0  0  0  0
 69 66  1  0  0  0  0
 70 76  1  0  0  0  0
 70 69  1  0  0  0  0
 71 69  2  0  0  0  0
 73 75  1  0  0  0  0
 75 74  1  0  0  0  0
 75 70  1  0  0  0  0
 75  5  1  0  0  0  0
 77 79  1  0  0  0  0
 77 83  1  0  0  0  0
 77 63  1  0  0  0  0
 78 77  1  0  0  0  0
 79 81  1  0  0  0  0
 79 80  1  0  0  0  0
 82 79  1  0  0  0  0
 83 85  1  0  0  0  0
 83 86  1  0  0  0  0
 84 83  1  0  0  0  0
M  END
