86
asd
Ru         0.00000        0.00000        0.00000
C          1.98230        0.00000        0.00000
N          2.90357        0.00000        0.99662
C          4.25350       -0.36802        0.52171
C          4.12361       -0.10905       -0.98346
N          2.66475       -0.15616       -1.17505
H          4.47774        0.90078       -1.20833
H          4.42250       -1.43535        0.71399
C          2.09553        0.10548       -2.46997
C          2.08153        1.43106       -2.95502
C          1.48520        1.67730       -4.19107
C          0.90946        0.65307       -4.95341
C          0.98490       -0.65224       -4.46852
C          1.59031       -0.95528       -3.24140
H          1.46048        2.69802       -4.56547
H          0.57614       -1.46679       -5.06189
C          1.73467       -2.40102       -2.83910
H          2.53929       -2.87100       -3.41970
H          1.95625       -2.51168       -1.77956
H          0.81561       -2.95632       -3.04890
C          2.72026        2.56695       -2.19578
H          2.27843        3.52098       -2.49458
H          3.79604        2.62281       -2.40778
H          2.58940        2.46264       -1.11800
C          0.22183        0.96133       -6.26078
H          0.11054        0.06275       -6.87515
H          0.77890        1.70732       -6.83772
H         -0.78176        1.37062       -6.08755
C          2.63136        0.15640        2.39071
C          2.46640        1.45899        2.89498
C          2.15178        1.60725        4.24810
H          2.00405        2.60805        4.64603
C          2.19367       -0.77537        4.56204
C          2.51377       -0.97385        3.21458
H          2.07865       -1.64375        5.20600
C          2.00638        0.50315        5.09642
C          2.69086       -2.36746        2.66801
H          2.29160       -3.10699        3.36792
H          3.75097       -2.60471        2.51259
H          2.17502       -2.48620        1.71060
H          3.47841        2.69065        1.42472
C          2.54119        2.66195        1.98986
H          2.46748        3.58474        2.57190
H          1.72604        2.64986        1.25718
C          1.67839        0.69208        6.55717
H          1.00973        1.54578        6.70781
H          2.58795        0.88423        7.14089
H          1.20129       -0.19893        6.97666
Cl        -0.27770        2.28319       -0.69108
Cl        -0.05461       -2.40578        0.05796
C         -0.38944        0.25139        1.77745
H          0.33357        0.43913        2.56644
C         -1.76312        0.19561        2.21709
C         -2.78021       -0.00581        1.25228
C         -4.11897       -0.08630        1.62795
C         -4.44525        0.03777        2.98291
C         -3.46094        0.24121        3.95659
C         -2.12659        0.31947        3.57227
H         -1.34108        0.47287        4.30751
H         -3.73828        0.33660        5.00120
H         -5.48913       -0.02441        3.27516
H         -4.90447       -0.23935        0.89946
O         -2.30310       -0.12100       -0.02218
H          5.26423        0.42281        2.26906
H          5.34385        1.48016        0.85494
N          6.72262       -0.08781        0.90506
C          5.37738        0.43909        1.18316
H          6.90425       -0.97312        1.37666
S          7.18922       -0.23076       -0.69685
N          6.20033       -1.43345       -1.32831
O          6.91420        1.06956       -1.31688
O          8.53566       -0.79992       -0.69607
H          4.93402       -0.70840       -2.89216
H          4.31948       -2.04791       -1.90055
C          4.87038       -1.10579       -1.87359
H          6.75409       -2.03389       -1.93521
C         -3.21571       -0.16873       -1.16913
H         -3.99322       -0.89556       -0.91480
C         -2.41149       -0.68592       -2.34956
H         -1.63061        0.02579       -2.63528
H         -1.94335       -1.64449       -2.11297
H         -3.08315       -0.81989       -3.20367
C         -3.80987        1.21145       -1.41486
H         -4.51004        1.16084       -2.25510
H         -4.35246        1.58328       -0.54145
H         -3.01010        1.91680       -1.65604
86
asd
Ru         0.00000        0.00000        0.00000
C          1.98230        0.00000        0.00000
N          2.90357        0.00000        0.99662
C          4.25350       -0.36802        0.52171
C          4.12361       -0.10905       -0.98346
N          2.66475       -0.15616       -1.17505
H          4.47774        0.90078       -1.20833
H          4.42250       -1.43535        0.71399
C          2.09553        0.10548       -2.46997
C          2.08153        1.43106       -2.95502
C          1.48520        1.67730       -4.19107
C          0.90946        0.65307       -4.95341
C          0.98490       -0.65224       -4.46852
C          1.59031       -0.95528       -3.24140
H          1.46048        2.69802       -4.56547
H          0.57614       -1.46679       -5.06189
C          1.73467       -2.40102       -2.83910
H          2.53929       -2.87100       -3.41970
H          1.95625       -2.51168       -1.77956
H          0.81561       -2.95632       -3.04890
C          2.72026        2.56695       -2.19578
H          2.27843        3.52098       -2.49458
H          3.79604        2.62281       -2.40778
H          2.58940        2.46264       -1.11800
C          0.22183        0.96133       -6.26078
H          0.11054        0.06275       -6.87515
H          0.77890        1.70732       -6.83772
H         -0.78176        1.37062       -6.08755
C          2.63136        0.15640        2.39071
C          2.46640        1.45899        2.89498
C          2.15178        1.60725        4.24810
H          2.00405        2.60805        4.64603
C          2.19367       -0.77537        4.56204
C          2.51377       -0.97385        3.21458
H          2.07865       -1.64375        5.20600
C          2.00638        0.50315        5.09642
C          2.69086       -2.36746        2.66801
H          2.29160       -3.10699        3.36792
H          3.75097       -2.60471        2.51259
H          2.17502       -2.48620        1.71060
H          3.47841        2.69065        1.42472
C          2.54119        2.66195        1.98986
H          2.46748        3.58474        2.57190
H          1.72604        2.64986        1.25718
C          1.67839        0.69208        6.55717
H          1.00973        1.54578        6.70781
H          2.58795        0.88423        7.14089
H          1.20129       -0.19893        6.97666
Cl        -0.27770        2.28319       -0.69108
Cl        -0.05461       -2.40578        0.05796
C         -0.38944        0.25139        1.77745
H          0.33357        0.43913        2.56644
C         -1.76312        0.19561        2.21709
C         -2.78021       -0.00581        1.25228
C         -4.11897       -0.08630        1.62795
C         -4.44525        0.03777        2.98291
C         -3.46094        0.24121        3.95659
C         -2.12659        0.31947        3.57227
H         -1.34108        0.47287        4.30751
H         -3.73828        0.33660        5.00120
H         -5.48913       -0.02441        3.27516
H         -4.90447       -0.23935        0.89946
O         -2.30310       -0.12100       -0.02218
H          5.26423        0.42281        2.26906
H          5.34385        1.48016        0.85494
N          6.72262       -0.08781        0.90506
C          5.37738        0.43909        1.18316
H          6.90425       -0.97312        1.37666
S          7.18922       -0.23076       -0.69685
N          6.20033       -1.43345       -1.32831
O          6.91420        1.06956       -1.31688
O          8.53566       -0.79992       -0.69607
H          4.93402       -0.70840       -2.89216
H          4.31948       -2.04791       -1.90055
C          4.87038       -1.10579       -1.87359
H          6.75409       -2.03389       -1.93521
C         -3.21571       -0.16873       -1.16913
H         -4.04252        0.50846       -0.93401
C         -3.74066       -1.59170       -1.25425
H         -2.93704       -2.29320       -1.49926
H         -4.19691       -1.89663       -0.30935
H         -4.49503       -1.64366       -2.04597
C         -2.48445        0.27052       -2.43032
H         -3.17972        0.25791       -3.27604
H         -2.08098        1.28240       -2.33631
H         -1.65938       -0.41740       -2.63364
86
asd
Ru         0.00000        0.00000        0.00000
C          1.98230        0.00000        0.00000
N          2.90357        0.00000        0.99662
C          4.25350       -0.36802        0.52171
C          4.12361       -0.10905       -0.98346
N          2.66475       -0.15616       -1.17505
H          4.47774        0.90078       -1.20833
H          4.42250       -1.43535        0.71399
C          2.09553        0.10548       -2.46997
C          2.08153        1.43106       -2.95502
C          1.48520        1.67730       -4.19107
C          0.90946        0.65307       -4.95341
C          0.98490       -0.65224       -4.46852
C          1.59031       -0.95528       -3.24140
H          1.46048        2.69802       -4.56547
H          0.57614       -1.46679       -5.06189
C          1.73467       -2.40102       -2.83910
H          2.53929       -2.87100       -3.41970
H          1.95625       -2.51168       -1.77956
H          0.81561       -2.95632       -3.04890
C          2.72026        2.56695       -2.19578
H          2.27843        3.52098       -2.49458
H          3.79604        2.62281       -2.40778
H          2.58940        2.46264       -1.11800
C          0.22183        0.96133       -6.26078
H          0.11054        0.06275       -6.87515
H          0.77890        1.70732       -6.83772
H         -0.78176        1.37062       -6.08755
C          2.63136        0.15640        2.39071
C          2.46640        1.45899        2.89498
C          2.15178        1.60725        4.24810
H          2.00405        2.60805        4.64603
C          2.19367       -0.77537        4.56204
C          2.51377       -0.97385        3.21458
H          2.07865       -1.64375        5.20600
C          2.00638        0.50315        5.09642
C          2.69086       -2.36746        2.66801
H          2.29160       -3.10699        3.36792
H          3.75097       -2.60471        2.51259
H          2.17502       -2.48620        1.71060
H          3.47841        2.69065        1.42472
C          2.54119        2.66195        1.98986
H          2.46748        3.58474        2.57190
H          1.72604        2.64986        1.25718
C          1.67839        0.69208        6.55717
H          1.00973        1.54578        6.70781
H          2.58795        0.88423        7.14089
H          1.20129       -0.19893        6.97666
Cl        -0.27770        2.28319       -0.69108
Cl        -0.05461       -2.40578        0.05796
C         -0.38944        0.25139        1.77745
H          0.33357        0.43913        2.56644
C         -1.76312        0.19561        2.21709
C         -2.78021       -0.00581        1.25228
C         -4.11897       -0.08630        1.62795
C         -4.44525        0.03777        2.98291
C         -3.46094        0.24121        3.95659
C         -2.12659        0.31947        3.57227
H         -1.34108        0.47287        4.30751
H         -3.73828        0.33660        5.00120
H         -5.48913       -0.02441        3.27516
H         -4.90447       -0.23935        0.89946
O         -2.30310       -0.12100       -0.02218
H          5.26423        0.42281        2.26906
H          5.34385        1.48016        0.85494
N          6.72262       -0.08781        0.90506
C          5.37738        0.43909        1.18316
H          6.90425       -0.97312        1.37666
S          7.18922       -0.23076       -0.69685
N          6.20033       -1.43345       -1.32831
O          6.91420        1.06956       -1.31688
O          8.53566       -0.79992       -0.69607
H          4.93402       -0.70840       -2.89216
H          4.31948       -2.04791       -1.90055
C          4.87038       -1.10579       -1.87359
H          6.75409       -2.03389       -1.93521
C         -3.21571       -0.16873       -1.16913
H         -2.58597       -0.19553       -2.06367
C         -4.01025        1.12591       -1.15285
H         -4.65946        1.17770       -0.27320
H         -3.34457        1.99242       -1.14940
H         -4.64023        1.16557       -2.04735
C         -4.09688       -1.40706       -1.07751
H         -4.75581       -1.44908       -1.95092
H         -3.50629       -2.32688       -1.05200
H         -4.70559       -1.35710       -0.17071
